/*---------------------------------------------------------------------------*\
| =========                 |                                                 |
| \\      /  F ield         | OpenFOAM: The Open Source CFD Toolbox           |
|  \\    /   O peration     | Version:  2306                                  |
|   \\  /    A nd           | Website:  www.openfoam.com                      |
|    \\/     M anipulation  |                                                 |
\*---------------------------------------------------------------------------*/
Build  : _fbf00d6b-20230626 OPENFOAM=2306 version=2306
Arch   : "LSB;label=32;scalar=64"
Exec   : simpleFoam
Date   : Jun 13 2026
Time   : 16:08:13
Host   : 4955a0285352
PID    : 219
I/O    : uncollated
Case   : /case
nProcs : 1
trapFpe: Floating point exception trapping enabled (FOAM_SIGFPE).
fileModificationChecking : Monitoring run-time modified files using timeStampMaster (fileModificationSkew 5, maxFileModificationPolls 20)
allowSystemOperations : Allowing user-supplied system call operations

// * * * * * * * * * * * * * * * * * * * * * * * * * * * * * * * * * * * * * //
Create time

Create mesh for time = 0


SIMPLE: convergence criteria
    field p	 tolerance 1e-05
    field U	 tolerance 1e-05
    field k	 tolerance 1e-05
    field omega	 tolerance 1e-05

Reading field p

Reading field U

Reading/calculating face flux field phi

Selecting incompressible transport model Newtonian
Selecting turbulence model type RAS
Selecting RAS turbulence model kOmegaSST
Selecting patchDistMethod meshWave
RAS
{
    RASModel        kOmegaSST;
    turbulence      on;
    printCoeffs     on;
    alphaK1         0.85;
    alphaK2         1;
    alphaOmega1     0.5;
    alphaOmega2     0.856;
    gamma1          0.555556;
    gamma2          0.44;
    beta1           0.075;
    beta2           0.0828;
    betaStar        0.09;
    a1              0.31;
    b1              1;
    c1              10;
    F3              false;
    decayControl    false;
    kInf            0;
    omegaInf        0;
}

No MRF models present

No finite volume options present

Starting time loop

wallShearStress wallShearStress:
    processing wall patches: 
        topWall
        bottomWall
        stepWall
        stepTop

Time = 1

smoothSolver:  Solving for Ux, Initial residual = 1, Final residual = 0.0203906, No Iterations 2
smoothSolver:  Solving for Uy, Initial residual = 0.00888999, Final residual = 0.000126028, No Iterations 2
GAMG:  Solving for p, Initial residual = 1, Final residual = 0.00989789, No Iterations 34
time step continuity errors : sum local = 0.0329075, global = 0.00874489, cumulative = 0.00874489
smoothSolver:  Solving for omega, Initial residual = 0.0327104, Final residual = 0.00133757, No Iterations 1
smoothSolver:  Solving for k, Initial residual = 1, Final residual = 0.0536551, No Iterations 1
ExecutionTime = 0.33 s  ClockTime = 0 s

Time = 2

smoothSolver:  Solving for Ux, Initial residual = 0.809006, Final residual = 0.0524685, No Iterations 2
smoothSolver:  Solving for Uy, Initial residual = 0.246321, Final residual = 0.0170549, No Iterations 2
GAMG:  Solving for p, Initial residual = 0.0039987, Final residual = 3.50889e-05, No Iterations 28
time step continuity errors : sum local = 0.0156035, global = 0.00424975, cumulative = 0.0129946
smoothSolver:  Solving for omega, Initial residual = 0.0187428, Final residual = 0.000909246, No Iterations 1
smoothSolver:  Solving for k, Initial residual = 0.64572, Final residual = 0.0315527, No Iterations 1
ExecutionTime = 0.39 s  ClockTime = 1 s

Time = 3

smoothSolver:  Solving for Ux, Initial residual = 0.700436, Final residual = 0.04492, No Iterations 2
smoothSolver:  Solving for Uy, Initial residual = 0.176234, Final residual = 0.0134559, No Iterations 2
GAMG:  Solving for p, Initial residual = 0.00480808, Final residual = 4.71827e-05, No Iterations 26
time step continuity errors : sum local = 0.0251005, global = -0.00635474, cumulative = 0.0066399
smoothSolver:  Solving for omega, Initial residual = 0.0659466, Final residual = 0.00212994, No Iterations 1
smoothSolver:  Solving for k, Initial residual = 0.453544, Final residual = 0.0152492, No Iterations 1
ExecutionTime = 0.45 s  ClockTime = 1 s

Time = 4

smoothSolver:  Solving for Ux, Initial residual = 0.552784, Final residual = 0.0344961, No Iterations 2
smoothSolver:  Solving for Uy, Initial residual = 0.119548, Final residual = 0.00903908, No Iterations 2
GAMG:  Solving for p, Initial residual = 0.00722015, Final residual = 5.14836e-05, No Iterations 30
time step continuity errors : sum local = 0.0246086, global = -0.00605086, cumulative = 0.000589043
smoothSolver:  Solving for omega, Initial residual = 0.0421336, Final residual = 0.000923012, No Iterations 1
smoothSolver:  Solving for k, Initial residual = 0.136474, Final residual = 0.00482509, No Iterations 1
ExecutionTime = 0.51 s  ClockTime = 1 s

Time = 5

smoothSolver:  Solving for Ux, Initial residual = 0.334432, Final residual = 0.0204608, No Iterations 2
smoothSolver:  Solving for Uy, Initial residual = 0.0776538, Final residual = 0.00546602, No Iterations 2
GAMG:  Solving for p, Initial residual = 0.0113985, Final residual = 9.30572e-05, No Iterations 30
time step continuity errors : sum local = 0.0253919, global = -0.00691543, cumulative = -0.00632639
smoothSolver:  Solving for omega, Initial residual = 0.0276939, Final residual = 0.00056411, No Iterations 1
smoothSolver:  Solving for k, Initial residual = 0.0662265, Final residual = 0.00217115, No Iterations 1
ExecutionTime = 0.57 s  ClockTime = 1 s

Time = 6

smoothSolver:  Solving for Ux, Initial residual = 0.0821109, Final residual = 0.00458502, No Iterations 2
smoothSolver:  Solving for Uy, Initial residual = 0.0475089, Final residual = 0.00286305, No Iterations 2
GAMG:  Solving for p, Initial residual = 0.0486407, Final residual = 0.000458601, No Iterations 28
time step continuity errors : sum local = 0.023221, global = -0.00600268, cumulative = -0.0123291
smoothSolver:  Solving for omega, Initial residual = 0.0250919, Final residual = 0.000499688, No Iterations 1
smoothSolver:  Solving for k, Initial residual = 0.0607462, Final residual = 0.00192636, No Iterations 1
ExecutionTime = 0.63 s  ClockTime = 1 s

Time = 7

smoothSolver:  Solving for Ux, Initial residual = 0.184957, Final residual = 0.0113323, No Iterations 2
smoothSolver:  Solving for Uy, Initial residual = 0.0369811, Final residual = 0.00182778, No Iterations 2
GAMG:  Solving for p, Initial residual = 0.0176145, Final residual = 0.000122991, No Iterations 28
time step continuity errors : sum local = 0.0147487, global = -0.00359614, cumulative = -0.0159252
smoothSolver:  Solving for omega, Initial residual = 0.0197528, Final residual = 0.00057599, No Iterations 1
smoothSolver:  Solving for k, Initial residual = 0.0789478, Final residual = 0.0023996, No Iterations 1
ExecutionTime = 0.68 s  ClockTime = 1 s

Time = 8

smoothSolver:  Solving for Ux, Initial residual = 0.3422, Final residual = 0.0213815, No Iterations 2
smoothSolver:  Solving for Uy, Initial residual = 0.0398114, Final residual = 0.00205498, No Iterations 2
GAMG:  Solving for p, Initial residual = 0.0090255, Final residual = 9.01023e-05, No Iterations 14
time step continuity errors : sum local = 0.0179589, global = -0.00670111, cumulative = -0.0226263
smoothSolver:  Solving for omega, Initial residual = 0.0175402, Final residual = 0.000596968, No Iterations 1
smoothSolver:  Solving for k, Initial residual = 0.0666878, Final residual = 0.00310975, No Iterations 1
ExecutionTime = 0.72 s  ClockTime = 1 s

Time = 9

smoothSolver:  Solving for Ux, Initial residual = 0.399148, Final residual = 0.0250446, No Iterations 2
smoothSolver:  Solving for Uy, Initial residual = 0.0426025, Final residual = 0.00238173, No Iterations 2
GAMG:  Solving for p, Initial residual = 0.00895227, Final residual = 7.53461e-05, No Iterations 21
time step continuity errors : sum local = 0.014812, global = 0.00351008, cumulative = -0.0191162
smoothSolver:  Solving for omega, Initial residual = 0.0149413, Final residual = 0.000554688, No Iterations 1
smoothSolver:  Solving for k, Initial residual = 0.0703417, Final residual = 0.00381583, No Iterations 1
ExecutionTime = 0.77 s  ClockTime = 1 s

Time = 10

smoothSolver:  Solving for Ux, Initial residual = 0.34321, Final residual = 0.0215172, No Iterations 2
smoothSolver:  Solving for Uy, Initial residual = 0.0375794, Final residual = 0.00217355, No Iterations 2
GAMG:  Solving for p, Initial residual = 0.011942, Final residual = 0.000116459, No Iterations 21
time step continuity errors : sum local = 0.0163057, global = 0.0040423, cumulative = -0.0150739
smoothSolver:  Solving for omega, Initial residual = 0.0118221, Final residual = 0.000487919, No Iterations 1
smoothSolver:  Solving for k, Initial residual = 0.0732753, Final residual = 0.00418761, No Iterations 1
ExecutionTime = 0.82 s  ClockTime = 1 s

Time = 11

smoothSolver:  Solving for Ux, Initial residual = 0.191719, Final residual = 0.0119963, No Iterations 2
smoothSolver:  Solving for Uy, Initial residual = 0.0319198, Final residual = 0.0017874, No Iterations 2
GAMG:  Solving for p, Initial residual = 0.0228595, Final residual = 0.00021844, No Iterations 20
time step continuity errors : sum local = 0.0138557, global = 0.00308032, cumulative = -0.0119936
smoothSolver:  Solving for omega, Initial residual = 0.00925508, Final residual = 0.000422821, No Iterations 1
smoothSolver:  Solving for k, Initial residual = 0.0737427, Final residual = 0.00447548, No Iterations 1
ExecutionTime = 0.86 s  ClockTime = 1 s

Time = 12

smoothSolver:  Solving for Ux, Initial residual = 0.0428946, Final residual = 0.00236078, No Iterations 2
smoothSolver:  Solving for Uy, Initial residual = 0.0346278, Final residual = 0.00192002, No Iterations 2
GAMG:  Solving for p, Initial residual = 0.104342, Final residual = 0.000906312, No Iterations 18
time step continuity errors : sum local = 0.0109132, global = 0.00240383, cumulative = -0.00958978
smoothSolver:  Solving for omega, Initial residual = 0.00911884, Final residual = 0.000371151, No Iterations 1
smoothSolver:  Solving for k, Initial residual = 0.0905972, Final residual = 0.00460432, No Iterations 1
ExecutionTime = 0.91 s  ClockTime = 1 s

Time = 13

smoothSolver:  Solving for Ux, Initial residual = 0.13585, Final residual = 0.00824275, No Iterations 2
smoothSolver:  Solving for Uy, Initial residual = 0.0378936, Final residual = 0.00211431, No Iterations 2
GAMG:  Solving for p, Initial residual = 0.0217619, Final residual = 0.000167433, No Iterations 17
time step continuity errors : sum local = 0.0100037, global = 0.00182939, cumulative = -0.00776039
smoothSolver:  Solving for omega, Initial residual = 0.00903542, Final residual = 0.000348582, No Iterations 1
smoothSolver:  Solving for k, Initial residual = 0.0994324, Final residual = 0.00450066, No Iterations 1
ExecutionTime = 0.95 s  ClockTime = 1 s

Time = 14

smoothSolver:  Solving for Ux, Initial residual = 0.158437, Final residual = 0.00970614, No Iterations 2
smoothSolver:  Solving for Uy, Initial residual = 0.0380391, Final residual = 0.00214839, No Iterations 2
GAMG:  Solving for p, Initial residual = 0.0194787, Final residual = 0.000179179, No Iterations 14
time step continuity errors : sum local = 0.0129971, global = -0.00254607, cumulative = -0.0103065
smoothSolver:  Solving for omega, Initial residual = 0.00761842, Final residual = 0.000310895, No Iterations 1
smoothSolver:  Solving for k, Initial residual = 0.0793958, Final residual = 0.00402898, No Iterations 1
ExecutionTime = 0.99 s  ClockTime = 1 s

Time = 15

smoothSolver:  Solving for Ux, Initial residual = 0.136328, Final residual = 0.00836894, No Iterations 2
smoothSolver:  Solving for Uy, Initial residual = 0.0356453, Final residual = 0.00204346, No Iterations 2
GAMG:  Solving for p, Initial residual = 0.0212826, Final residual = 0.000166644, No Iterations 18
time step continuity errors : sum local = 0.0114344, global = -0.00247929, cumulative = -0.0127858
smoothSolver:  Solving for omega, Initial residual = 0.00542515, Final residual = 0.000249011, No Iterations 1
smoothSolver:  Solving for k, Initial residual = 0.0585843, Final residual = 0.00349557, No Iterations 1
ExecutionTime = 1.04 s  ClockTime = 1 s

Time = 16

smoothSolver:  Solving for Ux, Initial residual = 0.0891681, Final residual = 0.00546098, No Iterations 2
smoothSolver:  Solving for Uy, Initial residual = 0.0327767, Final residual = 0.00189975, No Iterations 2
GAMG:  Solving for p, Initial residual = 0.0324028, Final residual = 0.00025569, No Iterations 20
time step continuity errors : sum local = 0.010832, global = -0.00245209, cumulative = -0.0152378
smoothSolver:  Solving for omega, Initial residual = 0.00539138, Final residual = 0.000237028, No Iterations 1
smoothSolver:  Solving for k, Initial residual = 0.0511605, Final residual = 0.0032737, No Iterations 1
ExecutionTime = 1.08 s  ClockTime = 1 s

Time = 17

smoothSolver:  Solving for Ux, Initial residual = 0.0368322, Final residual = 0.00215082, No Iterations 2
smoothSolver:  Solving for Uy, Initial residual = 0.0292776, Final residual = 0.00174565, No Iterations 2
GAMG:  Solving for p, Initial residual = 0.0794323, Final residual = 0.000566065, No Iterations 20
time step continuity errors : sum local = 0.00890927, global = -0.00202553, cumulative = -0.0172634
smoothSolver:  Solving for omega, Initial residual = 0.00591326, Final residual = 0.000248041, No Iterations 1
smoothSolver:  Solving for k, Initial residual = 0.0477857, Final residual = 0.00327357, No Iterations 1
ExecutionTime = 1.13 s  ClockTime = 1 s

Time = 18

smoothSolver:  Solving for Ux, Initial residual = 0.030139, Final residual = 0.00170948, No Iterations 2
smoothSolver:  Solving for Uy, Initial residual = 0.0278042, Final residual = 0.0015994, No Iterations 2
GAMG:  Solving for p, Initial residual = 0.091034, Final residual = 0.000804589, No Iterations 18
time step continuity errors : sum local = 0.00992568, global = -0.00225855, cumulative = -0.0195219
smoothSolver:  Solving for omega, Initial residual = 0.00602982, Final residual = 0.000264397, No Iterations 1
smoothSolver:  Solving for k, Initial residual = 0.0501357, Final residual = 0.00343874, No Iterations 1
ExecutionTime = 1.18 s  ClockTime = 1 s

Time = 19

smoothSolver:  Solving for Ux, Initial residual = 0.0542891, Final residual = 0.00324072, No Iterations 2
smoothSolver:  Solving for Uy, Initial residual = 0.026523, Final residual = 0.00150553, No Iterations 2
GAMG:  Solving for p, Initial residual = 0.0419712, Final residual = 0.000307034, No Iterations 12
time step continuity errors : sum local = 0.00756764, global = -0.00163554, cumulative = -0.0211575
smoothSolver:  Solving for omega, Initial residual = 0.00575618, Final residual = 0.000268954, No Iterations 1
smoothSolver:  Solving for k, Initial residual = 0.0536157, Final residual = 0.00360517, No Iterations 1
ExecutionTime = 1.21 s  ClockTime = 1 s

Time = 20

smoothSolver:  Solving for Ux, Initial residual = 0.0588395, Final residual = 0.0035744, No Iterations 2
smoothSolver:  Solving for Uy, Initial residual = 0.0254035, Final residual = 0.00145936, No Iterations 2
GAMG:  Solving for p, Initial residual = 0.0370931, Final residual = 0.000347127, No Iterations 11
time step continuity errors : sum local = 0.0093787, global = 0.0018403, cumulative = -0.0193172
smoothSolver:  Solving for omega, Initial residual = 0.00522287, Final residual = 0.000262679, No Iterations 1
smoothSolver:  Solving for k, Initial residual = 0.0545367, Final residual = 0.00369716, No Iterations 1
ExecutionTime = 1.25 s  ClockTime = 1 s

Time = 21

smoothSolver:  Solving for Ux, Initial residual = 0.0485519, Final residual = 0.00295802, No Iterations 2
smoothSolver:  Solving for Uy, Initial residual = 0.0241731, Final residual = 0.00139767, No Iterations 2
GAMG:  Solving for p, Initial residual = 0.0454184, Final residual = 0.000269613, No Iterations 12
time step continuity errors : sum local = 0.00594356, global = 0.000705957, cumulative = -0.0186112
smoothSolver:  Solving for omega, Initial residual = 0.00460539, Final residual = 0.000250418, No Iterations 1
smoothSolver:  Solving for k, Initial residual = 0.0529218, Final residual = 0.00370529, No Iterations 1
ExecutionTime = 1.29 s  ClockTime = 1 s

Time = 22

smoothSolver:  Solving for Ux, Initial residual = 0.0297445, Final residual = 0.00180551, No Iterations 2
smoothSolver:  Solving for Uy, Initial residual = 0.0233064, Final residual = 0.00133699, No Iterations 2
GAMG:  Solving for p, Initial residual = 0.0748588, Final residual = 0.00072505, No Iterations 14
time step continuity errors : sum local = 0.00957282, global = 0.00231208, cumulative = -0.0162991
smoothSolver:  Solving for omega, Initial residual = 0.00403601, Final residual = 0.000235551, No Iterations 1
smoothSolver:  Solving for k, Initial residual = 0.0492967, Final residual = 0.00362853, No Iterations 1
ExecutionTime = 1.33 s  ClockTime = 1 s

Time = 23

smoothSolver:  Solving for Ux, Initial residual = 0.0122116, Final residual = 0.00069769, No Iterations 2
smoothSolver:  Solving for Uy, Initial residual = 0.0226738, Final residual = 0.00130587, No Iterations 2
GAMG:  Solving for p, Initial residual = 0.219428, Final residual = 0.00188213, No Iterations 10
time step continuity errors : sum local = 0.00796341, global = 0.000818786, cumulative = -0.0154803
smoothSolver:  Solving for omega, Initial residual = 0.00394691, Final residual = 0.000224904, No Iterations 1
smoothSolver:  Solving for k, Initial residual = 0.0451866, Final residual = 0.00350232, No Iterations 1
ExecutionTime = 1.37 s  ClockTime = 2 s

Time = 24

smoothSolver:  Solving for Ux, Initial residual = 0.0181656, Final residual = 0.00107088, No Iterations 2
smoothSolver:  Solving for Uy, Initial residual = 0.0218513, Final residual = 0.00126376, No Iterations 2
GAMG:  Solving for p, Initial residual = 0.105979, Final residual = 0.000940706, No Iterations 9
time step continuity errors : sum local = 0.00775151, global = 0.000826717, cumulative = -0.0146536
smoothSolver:  Solving for omega, Initial residual = 0.00371645, Final residual = 0.000213971, No Iterations 1
smoothSolver:  Solving for k, Initial residual = 0.0433873, Final residual = 0.00334908, No Iterations 1
ExecutionTime = 1.4 s  ClockTime = 2 s

Time = 25

smoothSolver:  Solving for Ux, Initial residual = 0.0230259, Final residual = 0.00138685, No Iterations 2
smoothSolver:  Solving for Uy, Initial residual = 0.0211015, Final residual = 0.00121997, No Iterations 2
GAMG:  Solving for p, Initial residual = 0.0750687, Final residual = 0.000532746, No Iterations 8
time step continuity errors : sum local = 0.00603882, global = -0.000534851, cumulative = -0.0151885
smoothSolver:  Solving for omega, Initial residual = 0.00334696, Final residual = 0.000202281, No Iterations 1
smoothSolver:  Solving for k, Initial residual = 0.0412226, Final residual = 0.00319489, No Iterations 1
ExecutionTime = 1.43 s  ClockTime = 2 s

Time = 26

smoothSolver:  Solving for Ux, Initial residual = 0.0219889, Final residual = 0.001336, No Iterations 2
smoothSolver:  Solving for Uy, Initial residual = 0.0200744, Final residual = 0.00118046, No Iterations 2
GAMG:  Solving for p, Initial residual = 0.0735831, Final residual = 0.000565241, No Iterations 10
time step continuity errors : sum local = 0.00632465, global = 0.00168108, cumulative = -0.0135074
smoothSolver:  Solving for omega, Initial residual = 0.00300257, Final residual = 0.000192315, No Iterations 1
smoothSolver:  Solving for k, Initial residual = 0.0390898, Final residual = 0.00306131, No Iterations 1
ExecutionTime = 1.47 s  ClockTime = 2 s

Time = 27

smoothSolver:  Solving for Ux, Initial residual = 0.0173102, Final residual = 0.00105584, No Iterations 2
smoothSolver:  Solving for Uy, Initial residual = 0.019124, Final residual = 0.00114013, No Iterations 2
GAMG:  Solving for p, Initial residual = 0.0892319, Final residual = 0.000813215, No Iterations 10
time step continuity errors : sum local = 0.00716956, global = 0.00187831, cumulative = -0.0116291
smoothSolver:  Solving for omega, Initial residual = 0.0028239, Final residual = 0.000186355, No Iterations 1
smoothSolver:  Solving for k, Initial residual = 0.0373332, Final residual = 0.00294706, No Iterations 1
ExecutionTime = 1.5 s  ClockTime = 2 s

Time = 28

smoothSolver:  Solving for Ux, Initial residual = 0.0113704, Final residual = 0.000696124, No Iterations 2
smoothSolver:  Solving for Uy, Initial residual = 0.0183446, Final residual = 0.00110095, No Iterations 2
GAMG:  Solving for p, Initial residual = 0.13283, Final residual = 0.00116908, No Iterations 10
time step continuity errors : sum local = 0.00653623, global = 0.00161332, cumulative = -0.0100158
smoothSolver:  Solving for omega, Initial residual = 0.00286289, Final residual = 0.000184955, No Iterations 1
smoothSolver:  Solving for k, Initial residual = 0.0358745, Final residual = 0.00285954, No Iterations 1
ExecutionTime = 1.54 s  ClockTime = 2 s

Time = 29

smoothSolver:  Solving for Ux, Initial residual = 0.00857959, Final residual = 0.000519104, No Iterations 2
smoothSolver:  Solving for Uy, Initial residual = 0.0176431, Final residual = 0.00105719, No Iterations 2
GAMG:  Solving for p, Initial residual = 0.22532, Final residual = 0.00170327, No Iterations 10
time step continuity errors : sum local = 0.00520836, global = 0.00143759, cumulative = -0.00857817
smoothSolver:  Solving for omega, Initial residual = 0.00286642, Final residual = 0.000183974, No Iterations 1
smoothSolver:  Solving for k, Initial residual = 0.0346347, Final residual = 0.00278085, No Iterations 1
ExecutionTime = 1.57 s  ClockTime = 2 s

Time = 30

smoothSolver:  Solving for Ux, Initial residual = 0.0107657, Final residual = 0.000665503, No Iterations 2
smoothSolver:  Solving for Uy, Initial residual = 0.0171171, Final residual = 0.00102287, No Iterations 2
GAMG:  Solving for p, Initial residual = 0.130871, Final residual = 0.00112866, No Iterations 8
time step continuity errors : sum local = 0.00562553, global = -0.000615337, cumulative = -0.00919351
smoothSolver:  Solving for omega, Initial residual = 0.00283474, Final residual = 0.000183091, No Iterations 1
smoothSolver:  Solving for k, Initial residual = 0.0339583, Final residual = 0.00270894, No Iterations 1
ExecutionTime = 1.6 s  ClockTime = 2 s

Time = 31

smoothSolver:  Solving for Ux, Initial residual = 0.0117233, Final residual = 0.000729363, No Iterations 2
smoothSolver:  Solving for Uy, Initial residual = 0.0167581, Final residual = 0.00100084, No Iterations 2
GAMG:  Solving for p, Initial residual = 0.111201, Final residual = 0.000622805, No Iterations 9
time step continuity errors : sum local = 0.00354133, global = 0.000399163, cumulative = -0.00879434
smoothSolver:  Solving for omega, Initial residual = 0.00276091, Final residual = 0.000180984, No Iterations 1
smoothSolver:  Solving for k, Initial residual = 0.0331145, Final residual = 0.00264107, No Iterations 1
ExecutionTime = 1.63 s  ClockTime = 2 s

Time = 32

smoothSolver:  Solving for Ux, Initial residual = 0.0109974, Final residual = 0.000689003, No Iterations 2
smoothSolver:  Solving for Uy, Initial residual = 0.0165666, Final residual = 0.000989035, No Iterations 2
GAMG:  Solving for p, Initial residual = 0.115049, Final residual = 0.000978989, No Iterations 9
time step continuity errors : sum local = 0.00524164, global = 0.000666969, cumulative = -0.00812738
smoothSolver:  Solving for omega, Initial residual = 0.0026564, Final residual = 0.000177668, No Iterations 1
smoothSolver:  Solving for k, Initial residual = 0.0319436, Final residual = 0.0025636, No Iterations 1
ExecutionTime = 1.67 s  ClockTime = 2 s

Time = 33

smoothSolver:  Solving for Ux, Initial residual = 0.00933143, Final residual = 0.000588424, No Iterations 2
smoothSolver:  Solving for Uy, Initial residual = 0.0164383, Final residual = 0.000979362, No Iterations 2
GAMG:  Solving for p, Initial residual = 0.136201, Final residual = 0.000980352, No Iterations 11
time step continuity errors : sum local = 0.00431319, global = 0.000884894, cumulative = -0.00724248
smoothSolver:  Solving for omega, Initial residual = 0.00260112, Final residual = 0.000175719, No Iterations 1
smoothSolver:  Solving for k, Initial residual = 0.0307574, Final residual = 0.00248712, No Iterations 1
ExecutionTime = 1.7 s  ClockTime = 2 s

Time = 34

smoothSolver:  Solving for Ux, Initial residual = 0.00781155, Final residual = 0.000487446, No Iterations 2
smoothSolver:  Solving for Uy, Initial residual = 0.0162174, Final residual = 0.000968134, No Iterations 2
GAMG:  Solving for p, Initial residual = 0.178431, Final residual = 0.00147211, No Iterations 8
time step continuity errors : sum local = 0.0047878, global = -0.000636376, cumulative = -0.00787886
smoothSolver:  Solving for omega, Initial residual = 0.00257647, Final residual = 0.000173871, No Iterations 1
smoothSolver:  Solving for k, Initial residual = 0.0297371, Final residual = 0.00241363, No Iterations 1
ExecutionTime = 1.74 s  ClockTime = 2 s

Time = 35

smoothSolver:  Solving for Ux, Initial residual = 0.00711025, Final residual = 0.00043967, No Iterations 2
smoothSolver:  Solving for Uy, Initial residual = 0.0159181, Final residual = 0.000955115, No Iterations 2
GAMG:  Solving for p, Initial residual = 0.165568, Final residual = 0.00150451, No Iterations 10
time step continuity errors : sum local = 0.00512878, global = -0.00179544, cumulative = -0.0096743
smoothSolver:  Solving for omega, Initial residual = 0.00252468, Final residual = 0.000170976, No Iterations 1
smoothSolver:  Solving for k, Initial residual = 0.0287938, Final residual = 0.00233485, No Iterations 1
ExecutionTime = 1.77 s  ClockTime = 2 s

Time = 36

smoothSolver:  Solving for Ux, Initial residual = 0.00737268, Final residual = 0.0004535, No Iterations 2
smoothSolver:  Solving for Uy, Initial residual = 0.0156992, Final residual = 0.000944903, No Iterations 2
GAMG:  Solving for p, Initial residual = 0.139379, Final residual = 0.000989712, No Iterations 9
time step continuity errors : sum local = 0.00394761, global = 0.000461451, cumulative = -0.00921285
smoothSolver:  Solving for omega, Initial residual = 0.00246714, Final residual = 0.000168954, No Iterations 1
smoothSolver:  Solving for k, Initial residual = 0.027927, Final residual = 0.00226346, No Iterations 1
ExecutionTime = 1.8 s  ClockTime = 2 s

Time = 37

smoothSolver:  Solving for Ux, Initial residual = 0.00741592, Final residual = 0.000454671, No Iterations 2
smoothSolver:  Solving for Uy, Initial residual = 0.0155969, Final residual = 0.000942665, No Iterations 2
GAMG:  Solving for p, Initial residual = 0.13201, Final residual = 0.00115166, No Iterations 8
time step continuity errors : sum local = 0.00477228, global = -0.000645539, cumulative = -0.00985839
smoothSolver:  Solving for omega, Initial residual = 0.002415, Final residual = 0.000167162, No Iterations 1
smoothSolver:  Solving for k, Initial residual = 0.0271042, Final residual = 0.00219604, No Iterations 1
ExecutionTime = 1.83 s  ClockTime = 2 s

Time = 38

smoothSolver:  Solving for Ux, Initial residual = 0.00708853, Final residual = 0.000433721, No Iterations 2
smoothSolver:  Solving for Uy, Initial residual = 0.0155522, Final residual = 0.000942739, No Iterations 2
GAMG:  Solving for p, Initial residual = 0.132774, Final residual = 0.000783744, No Iterations 10
time step continuity errors : sum local = 0.00315349, global = -0.000401833, cumulative = -0.0102602
smoothSolver:  Solving for omega, Initial residual = 0.00236311, Final residual = 0.00016502, No Iterations 1
smoothSolver:  Solving for k, Initial residual = 0.0263194, Final residual = 0.00213259, No Iterations 1
ExecutionTime = 1.87 s  ClockTime = 2 s

Time = 39

smoothSolver:  Solving for Ux, Initial residual = 0.0065916, Final residual = 0.000403066, No Iterations 2
smoothSolver:  Solving for Uy, Initial residual = 0.0154743, Final residual = 0.000938342, No Iterations 2
GAMG:  Solving for p, Initial residual = 0.142009, Final residual = 0.000827554, No Iterations 10
time step continuity errors : sum local = 0.00304545, global = -0.000425839, cumulative = -0.0106861
smoothSolver:  Solving for omega, Initial residual = 0.00232738, Final residual = 0.000163288, No Iterations 1
smoothSolver:  Solving for k, Initial residual = 0.0255985, Final residual = 0.00207639, No Iterations 1
ExecutionTime = 1.9 s  ClockTime = 2 s

Time = 40

smoothSolver:  Solving for Ux, Initial residual = 0.00643814, Final residual = 0.000395354, No Iterations 2
smoothSolver:  Solving for Uy, Initial residual = 0.0153194, Final residual = 0.00093124, No Iterations 2
GAMG:  Solving for p, Initial residual = 0.154584, Final residual = 0.0013447, No Iterations 9
time step continuity errors : sum local = 0.00444847, global = 0.00135528, cumulative = -0.00933079
smoothSolver:  Solving for omega, Initial residual = 0.00230868, Final residual = 0.000163, No Iterations 1
smoothSolver:  Solving for k, Initial residual = 0.0249436, Final residual = 0.00202398, No Iterations 1
ExecutionTime = 1.94 s  ClockTime = 2 s

Time = 41

smoothSolver:  Solving for Ux, Initial residual = 0.0064345, Final residual = 0.000395919, No Iterations 2
smoothSolver:  Solving for Uy, Initial residual = 0.0150843, Final residual = 0.000923593, No Iterations 2
GAMG:  Solving for p, Initial residual = 0.165976, Final residual = 0.0013096, No Iterations 8
time step continuity errors : sum local = 0.00394252, global = -0.000267893, cumulative = -0.00959868
smoothSolver:  Solving for omega, Initial residual = 0.00229355, Final residual = 0.00016232, No Iterations 1
smoothSolver:  Solving for k, Initial residual = 0.024308, Final residual = 0.00197497, No Iterations 1
ExecutionTime = 1.97 s  ClockTime = 2 s

Time = 42

smoothSolver:  Solving for Ux, Initial residual = 0.00644431, Final residual = 0.000396346, No Iterations 2
smoothSolver:  Solving for Uy, Initial residual = 0.0149306, Final residual = 0.000916496, No Iterations 2
GAMG:  Solving for p, Initial residual = 0.174624, Final residual = 0.00116885, No Iterations 8
time step continuity errors : sum local = 0.0033226, global = -0.000315765, cumulative = -0.00991444
smoothSolver:  Solving for omega, Initial residual = 0.00227169, Final residual = 0.000161069, No Iterations 1
smoothSolver:  Solving for k, Initial residual = 0.023697, Final residual = 0.00192723, No Iterations 1
ExecutionTime = 2 s  ClockTime = 2 s

Time = 43

smoothSolver:  Solving for Ux, Initial residual = 0.00636508, Final residual = 0.000391979, No Iterations 2
smoothSolver:  Solving for Uy, Initial residual = 0.0148763, Final residual = 0.000913851, No Iterations 2
GAMG:  Solving for p, Initial residual = 0.173272, Final residual = 0.00150346, No Iterations 8
time step continuity errors : sum local = 0.00427938, global = -0.000904646, cumulative = -0.0108191
smoothSolver:  Solving for omega, Initial residual = 0.00226734, Final residual = 0.000160429, No Iterations 1
smoothSolver:  Solving for k, Initial residual = 0.0231528, Final residual = 0.00188156, No Iterations 1
ExecutionTime = 2.03 s  ClockTime = 2 s

Time = 44

smoothSolver:  Solving for Ux, Initial residual = 0.0062466, Final residual = 0.000384431, No Iterations 2
smoothSolver:  Solving for Uy, Initial residual = 0.0148168, Final residual = 0.000912975, No Iterations 2
GAMG:  Solving for p, Initial residual = 0.167217, Final residual = 0.00164462, No Iterations 8
time step continuity errors : sum local = 0.00481134, global = -0.00122368, cumulative = -0.0120428
smoothSolver:  Solving for omega, Initial residual = 0.00226122, Final residual = 0.000159974, No Iterations 1
smoothSolver:  Solving for k, Initial residual = 0.0226621, Final residual = 0.00183982, No Iterations 1
ExecutionTime = 2.06 s  ClockTime = 2 s

Time = 45

smoothSolver:  Solving for Ux, Initial residual = 0.00610581, Final residual = 0.000375139, No Iterations 2
smoothSolver:  Solving for Uy, Initial residual = 0.0147463, Final residual = 0.000911677, No Iterations 2
GAMG:  Solving for p, Initial residual = 0.160093, Final residual = 0.000932087, No Iterations 9
time step continuity errors : sum local = 0.00285966, global = 0.000661736, cumulative = -0.011381
smoothSolver:  Solving for omega, Initial residual = 0.00224931, Final residual = 0.000159215, No Iterations 1
smoothSolver:  Solving for k, Initial residual = 0.0221833, Final residual = 0.00179844, No Iterations 1
ExecutionTime = 2.09 s  ClockTime = 2 s

Time = 46

smoothSolver:  Solving for Ux, Initial residual = 0.00598308, Final residual = 0.000365531, No Iterations 2
smoothSolver:  Solving for Uy, Initial residual = 0.0146803, Final residual = 0.00090753, No Iterations 2
GAMG:  Solving for p, Initial residual = 0.151858, Final residual = 0.00145396, No Iterations 8
time step continuity errors : sum local = 0.00470489, global = -0.00106701, cumulative = -0.012448
smoothSolver:  Solving for omega, Initial residual = 0.00224562, Final residual = 0.000158469, No Iterations 1
smoothSolver:  Solving for k, Initial residual = 0.0216764, Final residual = 0.00175666, No Iterations 1
ExecutionTime = 2.13 s  ClockTime = 2 s

Time = 47

smoothSolver:  Solving for Ux, Initial residual = 0.00589182, Final residual = 0.000358296, No Iterations 2
smoothSolver:  Solving for Uy, Initial residual = 0.0145894, Final residual = 0.000902358, No Iterations 2
GAMG:  Solving for p, Initial residual = 0.144378, Final residual = 0.00142526, No Iterations 8
time step continuity errors : sum local = 0.00484452, global = -0.00115575, cumulative = -0.0136038
smoothSolver:  Solving for omega, Initial residual = 0.0022334, Final residual = 0.000158403, No Iterations 1
smoothSolver:  Solving for k, Initial residual = 0.0212271, Final residual = 0.00171924, No Iterations 1
ExecutionTime = 2.16 s  ClockTime = 2 s

Time = 48

smoothSolver:  Solving for Ux, Initial residual = 0.00582397, Final residual = 0.000352828, No Iterations 2
smoothSolver:  Solving for Uy, Initial residual = 0.0144561, Final residual = 0.000897684, No Iterations 2
GAMG:  Solving for p, Initial residual = 0.138967, Final residual = 0.00115284, No Iterations 8
time step continuity errors : sum local = 0.00406561, global = -0.000783252, cumulative = -0.014387
smoothSolver:  Solving for omega, Initial residual = 0.00222042, Final residual = 0.00015774, No Iterations 1
smoothSolver:  Solving for k, Initial residual = 0.0207673, Final residual = 0.00168335, No Iterations 1
ExecutionTime = 2.19 s  ClockTime = 2 s

Time = 49

smoothSolver:  Solving for Ux, Initial residual = 0.0057641, Final residual = 0.000348314, No Iterations 2
smoothSolver:  Solving for Uy, Initial residual = 0.014355, Final residual = 0.00089667, No Iterations 2
GAMG:  Solving for p, Initial residual = 0.136115, Final residual = 0.000924218, No Iterations 8
time step continuity errors : sum local = 0.00333824, global = -0.000411698, cumulative = -0.0147987
smoothSolver:  Solving for omega, Initial residual = 0.00221064, Final residual = 0.000156973, No Iterations 1
smoothSolver:  Solving for k, Initial residual = 0.0203243, Final residual = 0.00164858, No Iterations 1
ExecutionTime = 2.22 s  ClockTime = 2 s

Time = 50

smoothSolver:  Solving for Ux, Initial residual = 0.00572452, Final residual = 0.000344473, No Iterations 2
smoothSolver:  Solving for Uy, Initial residual = 0.0142917, Final residual = 0.000894677, No Iterations 2
GAMG:  Solving for p, Initial residual = 0.133598, Final residual = 0.000824053, No Iterations 8
time step continuity errors : sum local = 0.00302953, global = -0.000283753, cumulative = -0.0150825
smoothSolver:  Solving for omega, Initial residual = 0.00221501, Final residual = 0.000157207, No Iterations 1
smoothSolver:  Solving for k, Initial residual = 0.0199327, Final residual = 0.00161609, No Iterations 1
ExecutionTime = 2.25 s  ClockTime = 2 s

Time = 51

smoothSolver:  Solving for Ux, Initial residual = 0.00568853, Final residual = 0.000341364, No Iterations 2
smoothSolver:  Solving for Uy, Initial residual = 0.0142355, Final residual = 0.000891147, No Iterations 2
GAMG:  Solving for p, Initial residual = 0.132765, Final residual = 0.000808795, No Iterations 8
time step continuity errors : sum local = 0.00300213, global = -0.000250867, cumulative = -0.0153334
smoothSolver:  Solving for omega, Initial residual = 0.00221383, Final residual = 0.000157355, No Iterations 1
smoothSolver:  Solving for k, Initial residual = 0.0195803, Final residual = 0.00158614, No Iterations 1
ExecutionTime = 2.28 s  ClockTime = 2 s

Time = 52

smoothSolver:  Solving for Ux, Initial residual = 0.00565741, Final residual = 0.000338794, No Iterations 2
smoothSolver:  Solving for Uy, Initial residual = 0.0141495, Final residual = 0.000887385, No Iterations 2
GAMG:  Solving for p, Initial residual = 0.13273, Final residual = 0.000797145, No Iterations 8
time step continuity errors : sum local = 0.0029779, global = -0.000252476, cumulative = -0.0155858
smoothSolver:  Solving for omega, Initial residual = 0.00221234, Final residual = 0.000157165, No Iterations 1
smoothSolver:  Solving for k, Initial residual = 0.0192257, Final residual = 0.00155784, No Iterations 1
ExecutionTime = 2.31 s  ClockTime = 2 s

Time = 53

smoothSolver:  Solving for Ux, Initial residual = 0.00563136, Final residual = 0.00033651, No Iterations 2
smoothSolver:  Solving for Uy, Initial residual = 0.0140743, Final residual = 0.000885089, No Iterations 2
GAMG:  Solving for p, Initial residual = 0.132523, Final residual = 0.000782642, No Iterations 8
time step continuity errors : sum local = 0.00294329, global = -0.000282392, cumulative = -0.0158682
smoothSolver:  Solving for omega, Initial residual = 0.00221105, Final residual = 0.000157186, No Iterations 1
smoothSolver:  Solving for k, Initial residual = 0.0188739, Final residual = 0.00152994, No Iterations 1
ExecutionTime = 2.34 s  ClockTime = 2 s

Time = 54

smoothSolver:  Solving for Ux, Initial residual = 0.00560747, Final residual = 0.0003345, No Iterations 2
smoothSolver:  Solving for Uy, Initial residual = 0.0140444, Final residual = 0.0008817, No Iterations 2
GAMG:  Solving for p, Initial residual = 0.132322, Final residual = 0.000823804, No Iterations 8
time step continuity errors : sum local = 0.00311466, global = -0.000344156, cumulative = -0.0162124
smoothSolver:  Solving for omega, Initial residual = 0.00221474, Final residual = 0.000157535, No Iterations 1
smoothSolver:  Solving for k, Initial residual = 0.0185624, Final residual = 0.00150248, No Iterations 1
ExecutionTime = 2.37 s  ClockTime = 3 s

Time = 55

smoothSolver:  Solving for Ux, Initial residual = 0.00558807, Final residual = 0.000332588, No Iterations 2
smoothSolver:  Solving for Uy, Initial residual = 0.0140078, Final residual = 0.000878197, No Iterations 2
GAMG:  Solving for p, Initial residual = 0.130995, Final residual = 0.000962783, No Iterations 8
time step continuity errors : sum local = 0.00367734, global = -0.000422499, cumulative = -0.0166349
smoothSolver:  Solving for omega, Initial residual = 0.0022251, Final residual = 0.000158076, No Iterations 1
smoothSolver:  Solving for k, Initial residual = 0.0182783, Final residual = 0.00147882, No Iterations 1
ExecutionTime = 2.4 s  ClockTime = 3 s

Time = 56

smoothSolver:  Solving for Ux, Initial residual = 0.00557445, Final residual = 0.000330916, No Iterations 2
smoothSolver:  Solving for Uy, Initial residual = 0.0139657, Final residual = 0.000876128, No Iterations 2
GAMG:  Solving for p, Initial residual = 0.130732, Final residual = 0.00116596, No Iterations 7
time step continuity errors : sum local = 0.00450888, global = 0.000131615, cumulative = -0.0165033
smoothSolver:  Solving for omega, Initial residual = 0.00223057, Final residual = 0.000158752, No Iterations 1
smoothSolver:  Solving for k, Initial residual = 0.0179893, Final residual = 0.00145666, No Iterations 1
ExecutionTime = 2.43 s  ClockTime = 3 s

Time = 57

smoothSolver:  Solving for Ux, Initial residual = 0.00555627, Final residual = 0.000328974, No Iterations 2
smoothSolver:  Solving for Uy, Initial residual = 0.0139405, Final residual = 0.000874343, No Iterations 2
GAMG:  Solving for p, Initial residual = 0.130615, Final residual = 0.00106394, No Iterations 7
time step continuity errors : sum local = 0.00417222, global = 6.57434e-05, cumulative = -0.0164375
smoothSolver:  Solving for omega, Initial residual = 0.00224226, Final residual = 0.000158937, No Iterations 1
smoothSolver:  Solving for k, Initial residual = 0.0176929, Final residual = 0.00143303, No Iterations 1
ExecutionTime = 2.46 s  ClockTime = 3 s

Time = 58

smoothSolver:  Solving for Ux, Initial residual = 0.00554347, Final residual = 0.000326872, No Iterations 2
smoothSolver:  Solving for Uy, Initial residual = 0.0139328, Final residual = 0.000872484, No Iterations 2
GAMG:  Solving for p, Initial residual = 0.130888, Final residual = 0.00106652, No Iterations 7
time step continuity errors : sum local = 0.00425311, global = 3.35831e-05, cumulative = -0.0164039
smoothSolver:  Solving for omega, Initial residual = 0.00225575, Final residual = 0.00015924, No Iterations 1
smoothSolver:  Solving for k, Initial residual = 0.0174277, Final residual = 0.00140977, No Iterations 1
ExecutionTime = 2.49 s  ClockTime = 3 s

Time = 59

smoothSolver:  Solving for Ux, Initial residual = 0.00553137, Final residual = 0.000325044, No Iterations 2
smoothSolver:  Solving for Uy, Initial residual = 0.0139228, Final residual = 0.00086953, No Iterations 2
GAMG:  Solving for p, Initial residual = 0.131017, Final residual = 0.00109268, No Iterations 7
time step continuity errors : sum local = 0.00443885, global = 1.57134e-05, cumulative = -0.0163882
smoothSolver:  Solving for omega, Initial residual = 0.00226811, Final residual = 0.000159744, No Iterations 1
smoothSolver:  Solving for k, Initial residual = 0.0172162, Final residual = 0.00139063, No Iterations 1
ExecutionTime = 2.52 s  ClockTime = 3 s

Time = 60

smoothSolver:  Solving for Ux, Initial residual = 0.00552404, Final residual = 0.00032352, No Iterations 2
smoothSolver:  Solving for Uy, Initial residual = 0.0139164, Final residual = 0.000867653, No Iterations 2
GAMG:  Solving for p, Initial residual = 0.133059, Final residual = 0.00110389, No Iterations 7
time step continuity errors : sum local = 0.004566, global = 1.06717e-05, cumulative = -0.0163776
smoothSolver:  Solving for omega, Initial residual = 0.00227965, Final residual = 0.000160706, No Iterations 1
smoothSolver:  Solving for k, Initial residual = 0.0169857, Final residual = 0.00137386, No Iterations 1
ExecutionTime = 2.55 s  ClockTime = 3 s

Time = 61

smoothSolver:  Solving for Ux, Initial residual = 0.00552459, Final residual = 0.00032207, No Iterations 2
smoothSolver:  Solving for Uy, Initial residual = 0.0139308, Final residual = 0.000866655, No Iterations 2
GAMG:  Solving for p, Initial residual = 0.134335, Final residual = 0.00109888, No Iterations 7
time step continuity errors : sum local = 0.00462605, global = 9.12003e-06, cumulative = -0.0163684
smoothSolver:  Solving for omega, Initial residual = 0.00229679, Final residual = 0.000161264, No Iterations 1
smoothSolver:  Solving for k, Initial residual = 0.0167509, Final residual = 0.00135518, No Iterations 1
ExecutionTime = 2.58 s  ClockTime = 3 s

Time = 62

smoothSolver:  Solving for Ux, Initial residual = 0.00552875, Final residual = 0.000321043, No Iterations 2
smoothSolver:  Solving for Uy, Initial residual = 0.0140081, Final residual = 0.000866706, No Iterations 2
GAMG:  Solving for p, Initial residual = 0.135697, Final residual = 0.00106946, No Iterations 7
time step continuity errors : sum local = 0.00458729, global = 5.07149e-06, cumulative = -0.0163634
smoothSolver:  Solving for omega, Initial residual = 0.00230747, Final residual = 0.000161761, No Iterations 1
smoothSolver:  Solving for k, Initial residual = 0.016537, Final residual = 0.00133822, No Iterations 1
ExecutionTime = 2.61 s  ClockTime = 3 s

Time = 63

smoothSolver:  Solving for Ux, Initial residual = 0.00554754, Final residual = 0.000320536, No Iterations 2
smoothSolver:  Solving for Uy, Initial residual = 0.0140671, Final residual = 0.000865805, No Iterations 2
GAMG:  Solving for p, Initial residual = 0.136522, Final residual = 0.00104222, No Iterations 7
time step continuity errors : sum local = 0.00455236, global = -3.70289e-06, cumulative = -0.0163671
smoothSolver:  Solving for omega, Initial residual = 0.00232212, Final residual = 0.000162283, No Iterations 1
smoothSolver:  Solving for k, Initial residual = 0.0163755, Final residual = 0.00132357, No Iterations 1
ExecutionTime = 2.64 s  ClockTime = 3 s

Time = 64

smoothSolver:  Solving for Ux, Initial residual = 0.00556877, Final residual = 0.000320363, No Iterations 2
smoothSolver:  Solving for Uy, Initial residual = 0.0141075, Final residual = 0.000865505, No Iterations 2
GAMG:  Solving for p, Initial residual = 0.138942, Final residual = 0.00101701, No Iterations 7
time step continuity errors : sum local = 0.00452782, global = -1.7391e-05, cumulative = -0.0163845
smoothSolver:  Solving for omega, Initial residual = 0.00235433, Final residual = 0.000163068, No Iterations 1
smoothSolver:  Solving for k, Initial residual = 0.0162444, Final residual = 0.00131229, No Iterations 1
ExecutionTime = 2.67 s  ClockTime = 3 s

Time = 65

smoothSolver:  Solving for Ux, Initial residual = 0.00559845, Final residual = 0.000320774, No Iterations 2
smoothSolver:  Solving for Uy, Initial residual = 0.0141811, Final residual = 0.000867048, No Iterations 2
GAMG:  Solving for p, Initial residual = 0.141039, Final residual = 0.00100889, No Iterations 7
time step continuity errors : sum local = 0.00457761, global = -3.01371e-05, cumulative = -0.0164146
smoothSolver:  Solving for omega, Initial residual = 0.00237466, Final residual = 0.000163648, No Iterations 1
smoothSolver:  Solving for k, Initial residual = 0.016101, Final residual = 0.00129931, No Iterations 1
ExecutionTime = 2.7 s  ClockTime = 3 s

Time = 66

smoothSolver:  Solving for Ux, Initial residual = 0.00563532, Final residual = 0.000321364, No Iterations 2
smoothSolver:  Solving for Uy, Initial residual = 0.0142541, Final residual = 0.00086861, No Iterations 2
GAMG:  Solving for p, Initial residual = 0.14251, Final residual = 0.00103516, No Iterations 7
time step continuity errors : sum local = 0.00477415, global = -4.60616e-05, cumulative = -0.0164607
smoothSolver:  Solving for omega, Initial residual = 0.00239925, Final residual = 0.000164627, No Iterations 1
smoothSolver:  Solving for k, Initial residual = 0.0159933, Final residual = 0.00128808, No Iterations 1
ExecutionTime = 2.73 s  ClockTime = 3 s

Time = 67

smoothSolver:  Solving for Ux, Initial residual = 0.00567706, Final residual = 0.000322431, No Iterations 2
smoothSolver:  Solving for Uy, Initial residual = 0.0143517, Final residual = 0.000870472, No Iterations 2
GAMG:  Solving for p, Initial residual = 0.145575, Final residual = 0.00114685, No Iterations 7
time step continuity errors : sum local = 0.00538884, global = -4.34927e-05, cumulative = -0.0165042
smoothSolver:  Solving for omega, Initial residual = 0.00242013, Final residual = 0.000165581, No Iterations 1
smoothSolver:  Solving for k, Initial residual = 0.0158639, Final residual = 0.0012791, No Iterations 1
ExecutionTime = 2.77 s  ClockTime = 3 s

Time = 68

smoothSolver:  Solving for Ux, Initial residual = 0.00573148, Final residual = 0.000323762, No Iterations 2
smoothSolver:  Solving for Uy, Initial residual = 0.0144213, Final residual = 0.000873316, No Iterations 2
GAMG:  Solving for p, Initial residual = 0.147346, Final residual = 0.00130955, No Iterations 7
time step continuity errors : sum local = 0.00627009, global = -3.34713e-05, cumulative = -0.0165376
smoothSolver:  Solving for omega, Initial residual = 0.00244175, Final residual = 0.000165803, No Iterations 1
smoothSolver:  Solving for k, Initial residual = 0.0158117, Final residual = 0.00127131, No Iterations 1
ExecutionTime = 2.8 s  ClockTime = 3 s

Time = 69

smoothSolver:  Solving for Ux, Initial residual = 0.00578155, Final residual = 0.000325322, No Iterations 2
smoothSolver:  Solving for Uy, Initial residual = 0.0145584, Final residual = 0.000876666, No Iterations 2
GAMG:  Solving for p, Initial residual = 0.148766, Final residual = 0.00138073, No Iterations 7
time step continuity errors : sum local = 0.0067254, global = -1.82905e-05, cumulative = -0.0165559
smoothSolver:  Solving for omega, Initial residual = 0.00247917, Final residual = 0.000166692, No Iterations 1
smoothSolver:  Solving for k, Initial residual = 0.0157099, Final residual = 0.00126316, No Iterations 1
ExecutionTime = 2.83 s  ClockTime = 3 s

Time = 70

smoothSolver:  Solving for Ux, Initial residual = 0.00584398, Final residual = 0.000327196, No Iterations 2
smoothSolver:  Solving for Uy, Initial residual = 0.014749, Final residual = 0.000881004, No Iterations 2
GAMG:  Solving for p, Initial residual = 0.150191, Final residual = 0.0014019, No Iterations 7
time step continuity errors : sum local = 0.0069428, global = -1.64881e-05, cumulative = -0.0165724
smoothSolver:  Solving for omega, Initial residual = 0.00249003, Final residual = 0.00016767, No Iterations 1
smoothSolver:  Solving for k, Initial residual = 0.0156278, Final residual = 0.00125646, No Iterations 1
ExecutionTime = 2.86 s  ClockTime = 3 s

Time = 71

smoothSolver:  Solving for Ux, Initial residual = 0.00591856, Final residual = 0.000329468, No Iterations 2
smoothSolver:  Solving for Uy, Initial residual = 0.0148582, Final residual = 0.000886657, No Iterations 2
GAMG:  Solving for p, Initial residual = 0.152436, Final residual = 0.00139804, No Iterations 7
time step continuity errors : sum local = 0.00702937, global = -3.67539e-06, cumulative = -0.0165761
smoothSolver:  Solving for omega, Initial residual = 0.00253339, Final residual = 0.000168889, No Iterations 1
smoothSolver:  Solving for k, Initial residual = 0.0155976, Final residual = 0.00125223, No Iterations 1
ExecutionTime = 2.88 s  ClockTime = 3 s

Time = 72

smoothSolver:  Solving for Ux, Initial residual = 0.00599596, Final residual = 0.000332323, No Iterations 2
smoothSolver:  Solving for Uy, Initial residual = 0.0150148, Final residual = 0.000892379, No Iterations 2
GAMG:  Solving for p, Initial residual = 0.155116, Final residual = 0.00138598, No Iterations 7
time step continuity errors : sum local = 0.00709357, global = 3.87976e-06, cumulative = -0.0165722
smoothSolver:  Solving for omega, Initial residual = 0.00257571, Final residual = 0.000169708, No Iterations 1
smoothSolver:  Solving for k, Initial residual = 0.0155432, Final residual = 0.00124567, No Iterations 1
ExecutionTime = 2.91 s  ClockTime = 3 s

Time = 73

smoothSolver:  Solving for Ux, Initial residual = 0.00607353, Final residual = 0.000334748, No Iterations 2
smoothSolver:  Solving for Uy, Initial residual = 0.0152158, Final residual = 0.000897278, No Iterations 2
GAMG:  Solving for p, Initial residual = 0.156101, Final residual = 0.00135364, No Iterations 7
time step continuity errors : sum local = 0.00703567, global = 1.10168e-05, cumulative = -0.0165612
smoothSolver:  Solving for omega, Initial residual = 0.0025762, Final residual = 0.000171183, No Iterations 1
smoothSolver:  Solving for k, Initial residual = 0.0155003, Final residual = 0.00124118, No Iterations 1
ExecutionTime = 2.94 s  ClockTime = 3 s

Time = 74

smoothSolver:  Solving for Ux, Initial residual = 0.00616099, Final residual = 0.000337309, No Iterations 2
smoothSolver:  Solving for Uy, Initial residual = 0.0154071, Final residual = 0.00090411, No Iterations 2
GAMG:  Solving for p, Initial residual = 0.159308, Final residual = 0.00130236, No Iterations 7
time step continuity errors : sum local = 0.00688575, global = 2.59203e-05, cumulative = -0.0165353
smoothSolver:  Solving for omega, Initial residual = 0.00264754, Final residual = 0.000172463, No Iterations 1
smoothSolver:  Solving for k, Initial residual = 0.0154972, Final residual = 0.00124118, No Iterations 1
ExecutionTime = 2.97 s  ClockTime = 3 s

Time = 75

smoothSolver:  Solving for Ux, Initial residual = 0.00623888, Final residual = 0.000340411, No Iterations 2
smoothSolver:  Solving for Uy, Initial residual = 0.0155509, Final residual = 0.000911098, No Iterations 2
GAMG:  Solving for p, Initial residual = 0.161546, Final residual = 0.00121655, No Iterations 7
time step continuity errors : sum local = 0.00655869, global = 3.1341e-05, cumulative = -0.0165039
smoothSolver:  Solving for omega, Initial residual = 0.00265463, Final residual = 0.000173482, No Iterations 1
smoothSolver:  Solving for k, Initial residual = 0.015465, Final residual = 0.00123522, No Iterations 1
ExecutionTime = 3 s  ClockTime = 3 s

Time = 76

smoothSolver:  Solving for Ux, Initial residual = 0.00632254, Final residual = 0.000343615, No Iterations 2
smoothSolver:  Solving for Uy, Initial residual = 0.0157473, Final residual = 0.000917641, No Iterations 2
GAMG:  Solving for p, Initial residual = 0.163317, Final residual = 0.00107302, No Iterations 7
time step continuity errors : sum local = 0.00586994, global = 2.49961e-05, cumulative = -0.0164789
smoothSolver:  Solving for omega, Initial residual = 0.0026995, Final residual = 0.000175085, No Iterations 1
smoothSolver:  Solving for k, Initial residual = 0.0154461, Final residual = 0.00123235, No Iterations 1
ExecutionTime = 3.03 s  ClockTime = 3 s

Time = 77

smoothSolver:  Solving for Ux, Initial residual = 0.00641682, Final residual = 0.000346767, No Iterations 2
smoothSolver:  Solving for Uy, Initial residual = 0.0159492, Final residual = 0.000924982, No Iterations 2
GAMG:  Solving for p, Initial residual = 0.16568, Final residual = 0.000881753, No Iterations 7
time step continuity errors : sum local = 0.00491642, global = 2.90248e-05, cumulative = -0.0164499
smoothSolver:  Solving for omega, Initial residual = 0.0027568, Final residual = 0.000177042, No Iterations 1
smoothSolver:  Solving for k, Initial residual = 0.0154657, Final residual = 0.00123336, No Iterations 1
ExecutionTime = 3.06 s  ClockTime = 3 s

Time = 78

smoothSolver:  Solving for Ux, Initial residual = 0.00652045, Final residual = 0.000349878, No Iterations 2
smoothSolver:  Solving for Uy, Initial residual = 0.0161016, Final residual = 0.000934281, No Iterations 2
GAMG:  Solving for p, Initial residual = 0.16701, Final residual = 0.000810179, No Iterations 7
time step continuity errors : sum local = 0.00458522, global = 3.09848e-05, cumulative = -0.0164189
smoothSolver:  Solving for omega, Initial residual = 0.00275808, Final residual = 0.000178099, No Iterations 1
smoothSolver:  Solving for k, Initial residual = 0.0154496, Final residual = 0.00122995, No Iterations 1
ExecutionTime = 3.09 s  ClockTime = 3 s

Time = 79

smoothSolver:  Solving for Ux, Initial residual = 0.00658667, Final residual = 0.000352991, No Iterations 2
smoothSolver:  Solving for Uy, Initial residual = 0.0163201, Final residual = 0.00094195, No Iterations 2
GAMG:  Solving for p, Initial residual = 0.169524, Final residual = 0.000865132, No Iterations 7
time step continuity errors : sum local = 0.00497307, global = 3.04369e-05, cumulative = -0.0163885
smoothSolver:  Solving for omega, Initial residual = 0.00283519, Final residual = 0.000179876, No Iterations 1
smoothSolver:  Solving for k, Initial residual = 0.0154808, Final residual = 0.00122906, No Iterations 1
ExecutionTime = 3.12 s  ClockTime = 3 s

Time = 80

smoothSolver:  Solving for Ux, Initial residual = 0.00669224, Final residual = 0.000356222, No Iterations 2
smoothSolver:  Solving for Uy, Initial residual = 0.0165704, Final residual = 0.00094999, No Iterations 2
GAMG:  Solving for p, Initial residual = 0.171674, Final residual = 0.000974182, No Iterations 7
time step continuity errors : sum local = 0.00568767, global = 3.2344e-05, cumulative = -0.0163561
smoothSolver:  Solving for omega, Initial residual = 0.00285238, Final residual = 0.000182398, No Iterations 1
smoothSolver:  Solving for k, Initial residual = 0.0155054, Final residual = 0.00122999, No Iterations 1
ExecutionTime = 3.14 s  ClockTime = 3 s

Time = 81

smoothSolver:  Solving for Ux, Initial residual = 0.00678255, Final residual = 0.000359282, No Iterations 2
smoothSolver:  Solving for Uy, Initial residual = 0.0167418, Final residual = 0.000960492, No Iterations 2
GAMG:  Solving for p, Initial residual = 0.172243, Final residual = 0.00103659, No Iterations 7
time step continuity errors : sum local = 0.00613705, global = 3.21804e-05, cumulative = -0.016324
smoothSolver:  Solving for omega, Initial residual = 0.00289664, Final residual = 0.000183704, No Iterations 1
smoothSolver:  Solving for k, Initial residual = 0.0155571, Final residual = 0.00122912, No Iterations 1
ExecutionTime = 3.17 s  ClockTime = 3 s

Time = 82

smoothSolver:  Solving for Ux, Initial residual = 0.00686537, Final residual = 0.00036248, No Iterations 2
smoothSolver:  Solving for Uy, Initial residual = 0.0169588, Final residual = 0.00096916, No Iterations 2
GAMG:  Solving for p, Initial residual = 0.173835, Final residual = 0.0010987, No Iterations 7
time step continuity errors : sum local = 0.00657984, global = 2.65633e-05, cumulative = -0.0162974
smoothSolver:  Solving for omega, Initial residual = 0.00294468, Final residual = 0.00018627, No Iterations 1
smoothSolver:  Solving for k, Initial residual = 0.0155545, Final residual = 0.00123194, No Iterations 1
ExecutionTime = 3.2 s  ClockTime = 3 s

Time = 83

smoothSolver:  Solving for Ux, Initial residual = 0.00694384, Final residual = 0.000365818, No Iterations 2
smoothSolver:  Solving for Uy, Initial residual = 0.0172512, Final residual = 0.000979874, No Iterations 2
GAMG:  Solving for p, Initial residual = 0.174106, Final residual = 0.00121243, No Iterations 7
time step continuity errors : sum local = 0.00734611, global = 2.13972e-05, cumulative = -0.016276
smoothSolver:  Solving for omega, Initial residual = 0.00296199, Final residual = 0.000188663, No Iterations 1
smoothSolver:  Solving for k, Initial residual = 0.0156008, Final residual = 0.00123367, No Iterations 1
ExecutionTime = 3.23 s  ClockTime = 3 s

Time = 84

smoothSolver:  Solving for Ux, Initial residual = 0.00703908, Final residual = 0.000369292, No Iterations 2
smoothSolver:  Solving for Uy, Initial residual = 0.0174425, Final residual = 0.000992575, No Iterations 2
GAMG:  Solving for p, Initial residual = 0.174109, Final residual = 0.00131647, No Iterations 7
time step continuity errors : sum local = 0.00810459, global = 1.30766e-05, cumulative = -0.0162629
smoothSolver:  Solving for omega, Initial residual = 0.00304732, Final residual = 0.00019063, No Iterations 1
smoothSolver:  Solving for k, Initial residual = 0.0156615, Final residual = 0.00122987, No Iterations 1
ExecutionTime = 3.26 s  ClockTime = 3 s

Time = 85

smoothSolver:  Solving for Ux, Initial residual = 0.00711175, Final residual = 0.000372057, No Iterations 2
smoothSolver:  Solving for Uy, Initial residual = 0.0176877, Final residual = 0.00100283, No Iterations 2
GAMG:  Solving for p, Initial residual = 0.174927, Final residual = 0.00145001, No Iterations 7
time step continuity errors : sum local = 0.00900411, global = 1.33928e-05, cumulative = -0.0162495
smoothSolver:  Solving for omega, Initial residual = 0.00305317, Final residual = 0.000192722, No Iterations 1
smoothSolver:  Solving for k, Initial residual = 0.0156961, Final residual = 0.00123605, No Iterations 1
ExecutionTime = 3.29 s  ClockTime = 3 s

Time = 86

smoothSolver:  Solving for Ux, Initial residual = 0.00720013, Final residual = 0.000375371, No Iterations 2
smoothSolver:  Solving for Uy, Initial residual = 0.0179671, Final residual = 0.00101541, No Iterations 2
GAMG:  Solving for p, Initial residual = 0.176664, Final residual = 0.00150729, No Iterations 7
time step continuity errors : sum local = 0.00948586, global = 1.03856e-05, cumulative = -0.0162391
smoothSolver:  Solving for omega, Initial residual = 0.0031101, Final residual = 0.000195698, No Iterations 1
smoothSolver:  Solving for k, Initial residual = 0.0157784, Final residual = 0.00124165, No Iterations 1
ExecutionTime = 3.32 s  ClockTime = 3 s

Time = 87

smoothSolver:  Solving for Ux, Initial residual = 0.00729254, Final residual = 0.00037906, No Iterations 2
smoothSolver:  Solving for Uy, Initial residual = 0.0181687, Final residual = 0.0010283, No Iterations 2
GAMG:  Solving for p, Initial residual = 0.177269, Final residual = 0.00142902, No Iterations 7
time step continuity errors : sum local = 0.00914324, global = 8.54332e-06, cumulative = -0.0162306
smoothSolver:  Solving for omega, Initial residual = 0.00315234, Final residual = 0.000197551, No Iterations 1
smoothSolver:  Solving for k, Initial residual = 0.0158136, Final residual = 0.0012356, No Iterations 1
ExecutionTime = 3.36 s  ClockTime = 4 s

Time = 88

smoothSolver:  Solving for Ux, Initial residual = 0.0073834, Final residual = 0.000382161, No Iterations 2
smoothSolver:  Solving for Uy, Initial residual = 0.0184402, Final residual = 0.00103816, No Iterations 2
GAMG:  Solving for p, Initial residual = 0.17997, Final residual = 0.0013709, No Iterations 7
time step continuity errors : sum local = 0.00881628, global = 7.1583e-06, cumulative = -0.0162234
smoothSolver:  Solving for omega, Initial residual = 0.0031724, Final residual = 0.00019991, No Iterations 1
smoothSolver:  Solving for k, Initial residual = 0.0158894, Final residual = 0.00124364, No Iterations 1
ExecutionTime = 3.39 s  ClockTime = 4 s

Time = 89

smoothSolver:  Solving for Ux, Initial residual = 0.00746246, Final residual = 0.000385931, No Iterations 2
smoothSolver:  Solving for Uy, Initial residual = 0.0187175, Final residual = 0.00105244, No Iterations 2
GAMG:  Solving for p, Initial residual = 0.182724, Final residual = 0.00131128, No Iterations 7
time step continuity errors : sum local = 0.00852056, global = 7.36258e-06, cumulative = -0.0162161
smoothSolver:  Solving for omega, Initial residual = 0.0032567, Final residual = 0.000203623, No Iterations 1
smoothSolver:  Solving for k, Initial residual = 0.0159959, Final residual = 0.00125113, No Iterations 1
ExecutionTime = 3.42 s  ClockTime = 4 s

Time = 90

smoothSolver:  Solving for Ux, Initial residual = 0.00756834, Final residual = 0.000390091, No Iterations 2
smoothSolver:  Solving for Uy, Initial residual = 0.0189378, Final residual = 0.00106603, No Iterations 2
GAMG:  Solving for p, Initial residual = 0.181643, Final residual = 0.00129515, No Iterations 7
time step continuity errors : sum local = 0.00850482, global = 7.6004e-06, cumulative = -0.0162085
smoothSolver:  Solving for omega, Initial residual = 0.00325117, Final residual = 0.000205419, No Iterations 1
smoothSolver:  Solving for k, Initial residual = 0.0160319, Final residual = 0.00124661, No Iterations 1
ExecutionTime = 3.49 s  ClockTime = 4 s

Time = 91

smoothSolver:  Solving for Ux, Initial residual = 0.00765534, Final residual = 0.000393449, No Iterations 2
smoothSolver:  Solving for Uy, Initial residual = 0.0192729, Final residual = 0.0010773, No Iterations 2
GAMG:  Solving for p, Initial residual = 0.184731, Final residual = 0.00131216, No Iterations 7
time step continuity errors : sum local = 0.00865617, global = 3.53254e-06, cumulative = -0.0162049
smoothSolver:  Solving for omega, Initial residual = 0.00331282, Final residual = 0.000208009, No Iterations 1
smoothSolver:  Solving for k, Initial residual = 0.0161436, Final residual = 0.0012545, No Iterations 1
ExecutionTime = 3.54 s  ClockTime = 4 s

Time = 92

smoothSolver:  Solving for Ux, Initial residual = 0.00773753, Final residual = 0.000397536, No Iterations 2
smoothSolver:  Solving for Uy, Initial residual = 0.0195552, Final residual = 0.00109445, No Iterations 2
GAMG:  Solving for p, Initial residual = 0.184394, Final residual = 0.00135268, No Iterations 7
time step continuity errors : sum local = 0.00903375, global = 4.81858e-06, cumulative = -0.0162001
smoothSolver:  Solving for omega, Initial residual = 0.00336568, Final residual = 0.000211404, No Iterations 1
smoothSolver:  Solving for k, Initial residual = 0.0162693, Final residual = 0.00126592, No Iterations 1
ExecutionTime = 3.57 s  ClockTime = 4 s

Time = 93

smoothSolver:  Solving for Ux, Initial residual = 0.00783982, Final residual = 0.000401568, No Iterations 2
smoothSolver:  Solving for Uy, Initial residual = 0.0198046, Final residual = 0.00110827, No Iterations 2
GAMG:  Solving for p, Initial residual = 0.18248, Final residual = 0.0014098, No Iterations 7
time step continuity errors : sum local = 0.0095131, global = 6.2407e-06, cumulative = -0.0161939
smoothSolver:  Solving for omega, Initial residual = 0.00338619, Final residual = 0.000213786, No Iterations 1
smoothSolver:  Solving for k, Initial residual = 0.0162922, Final residual = 0.00126606, No Iterations 1
ExecutionTime = 3.6 s  ClockTime = 4 s

Time = 94

smoothSolver:  Solving for Ux, Initial residual = 0.00791449, Final residual = 0.000405258, No Iterations 2
smoothSolver:  Solving for Uy, Initial residual = 0.0201784, Final residual = 0.00111941, No Iterations 2
GAMG:  Solving for p, Initial residual = 0.183648, Final residual = 0.00146503, No Iterations 7
time step continuity errors : sum local = 0.00998873, global = 9.09002e-06, cumulative = -0.0161848
smoothSolver:  Solving for omega, Initial residual = 0.0034566, Final residual = 0.000216938, No Iterations 1
smoothSolver:  Solving for k, Initial residual = 0.0164311, Final residual = 0.0012697, No Iterations 1
ExecutionTime = 3.63 s  ClockTime = 4 s

Time = 95

smoothSolver:  Solving for Ux, Initial residual = 0.00801182, Final residual = 0.000410237, No Iterations 2
smoothSolver:  Solving for Uy, Initial residual = 0.0204097, Final residual = 0.00113801, No Iterations 2
GAMG:  Solving for p, Initial residual = 0.181922, Final residual = 0.00148973, No Iterations 7
time step continuity errors : sum local = 0.0102923, global = 1.28952e-05, cumulative = -0.0161719
smoothSolver:  Solving for omega, Initial residual = 0.00346605, Final residual = 0.000219313, No Iterations 1
smoothSolver:  Solving for k, Initial residual = 0.0166148, Final residual = 0.0012785, No Iterations 1
ExecutionTime = 3.66 s  ClockTime = 4 s

Time = 96

smoothSolver:  Solving for Ux, Initial residual = 0.00811872, Final residual = 0.000414464, No Iterations 2
smoothSolver:  Solving for Uy, Initial residual = 0.0207175, Final residual = 0.00115142, No Iterations 2
GAMG:  Solving for p, Initial residual = 0.183501, Final residual = 0.00145017, No Iterations 7
time step continuity errors : sum local = 0.0101101, global = 1.80161e-05, cumulative = -0.0161539
smoothSolver:  Solving for omega, Initial residual = 0.00351223, Final residual = 0.000221641, No Iterations 1
smoothSolver:  Solving for k, Initial residual = 0.0165975, Final residual = 0.0012868, No Iterations 1
ExecutionTime = 3.69 s  ClockTime = 4 s

Time = 97

smoothSolver:  Solving for Ux, Initial residual = 0.00821592, Final residual = 0.000418931, No Iterations 2
smoothSolver:  Solving for Uy, Initial residual = 0.0210494, Final residual = 0.00116353, No Iterations 2
GAMG:  Solving for p, Initial residual = 0.186884, Final residual = 0.00141693, No Iterations 7
time step continuity errors : sum local = 0.00994601, global = 2.29843e-05, cumulative = -0.0161309
smoothSolver:  Solving for omega, Initial residual = 0.00355226, Final residual = 0.000224282, No Iterations 1
smoothSolver:  Solving for k, Initial residual = 0.0167233, Final residual = 0.00129078, No Iterations 1
ExecutionTime = 3.72 s  ClockTime = 4 s

Time = 98

smoothSolver:  Solving for Ux, Initial residual = 0.00831951, Final residual = 0.000424153, No Iterations 2
smoothSolver:  Solving for Uy, Initial residual = 0.0212681, Final residual = 0.00118382, No Iterations 2
GAMG:  Solving for p, Initial residual = 0.184143, Final residual = 0.00131592, No Iterations 7
time step continuity errors : sum local = 0.00930668, global = 2.45861e-05, cumulative = -0.0161063
smoothSolver:  Solving for omega, Initial residual = 0.00358797, Final residual = 0.000226666, No Iterations 1
smoothSolver:  Solving for k, Initial residual = 0.0169639, Final residual = 0.00130175, No Iterations 1
ExecutionTime = 3.75 s  ClockTime = 4 s

Time = 99

smoothSolver:  Solving for Ux, Initial residual = 0.00842213, Final residual = 0.000428654, No Iterations 2
smoothSolver:  Solving for Uy, Initial residual = 0.021598, Final residual = 0.00119477, No Iterations 2
GAMG:  Solving for p, Initial residual = 0.186528, Final residual = 0.00132853, No Iterations 7
time step continuity errors : sum local = 0.00947951, global = 2.85183e-05, cumulative = -0.0160778
smoothSolver:  Solving for omega, Initial residual = 0.00365146, Final residual = 0.000229483, No Iterations 1
smoothSolver:  Solving for k, Initial residual = 0.016973, Final residual = 0.0013091, No Iterations 1
ExecutionTime = 3.78 s  ClockTime = 4 s

Time = 100

smoothSolver:  Solving for Ux, Initial residual = 0.00851358, Final residual = 0.000433829, No Iterations 2
smoothSolver:  Solving for Uy, Initial residual = 0.0219128, Final residual = 0.00121073, No Iterations 2
GAMG:  Solving for p, Initial residual = 0.187398, Final residual = 0.00139778, No Iterations 7
time step continuity errors : sum local = 0.0100692, global = 3.35417e-05, cumulative = -0.0160442
smoothSolver:  Solving for omega, Initial residual = 0.00366551, Final residual = 0.000231835, No Iterations 1
smoothSolver:  Solving for k, Initial residual = 0.0170943, Final residual = 0.00130895, No Iterations 1
ExecutionTime = 3.82 s  ClockTime = 4 s

Time = 101

smoothSolver:  Solving for Ux, Initial residual = 0.00862018, Final residual = 0.000439479, No Iterations 2
smoothSolver:  Solving for Uy, Initial residual = 0.0221459, Final residual = 0.00123137, No Iterations 2
GAMG:  Solving for p, Initial residual = 0.185305, Final residual = 0.00152834, No Iterations 7
time step continuity errors : sum local = 0.0111422, global = 3.03655e-05, cumulative = -0.0160139
smoothSolver:  Solving for omega, Initial residual = 0.00371127, Final residual = 0.000234634, No Iterations 1
smoothSolver:  Solving for k, Initial residual = 0.0172965, Final residual = 0.00132418, No Iterations 1
ExecutionTime = 3.85 s  ClockTime = 4 s

Time = 102

smoothSolver:  Solving for Ux, Initial residual = 0.00871967, Final residual = 0.000444005, No Iterations 2
smoothSolver:  Solving for Uy, Initial residual = 0.0225079, Final residual = 0.00124052, No Iterations 2
GAMG:  Solving for p, Initial residual = 0.189939, Final residual = 0.00172126, No Iterations 7
time step continuity errors : sum local = 0.0126261, global = 2.31086e-05, cumulative = -0.0159908
smoothSolver:  Solving for omega, Initial residual = 0.00373932, Final residual = 0.000236967, No Iterations 1
smoothSolver:  Solving for k, Initial residual = 0.0173221, Final residual = 0.00133339, No Iterations 1
ExecutionTime = 3.88 s  ClockTime = 4 s

Time = 103

smoothSolver:  Solving for Ux, Initial residual = 0.00880712, Final residual = 0.000449483, No Iterations 2
smoothSolver:  Solving for Uy, Initial residual = 0.0227689, Final residual = 0.00126049, No Iterations 2
GAMG:  Solving for p, Initial residual = 0.189165, Final residual = 0.00180249, No Iterations 7
time step continuity errors : sum local = 0.0132816, global = 2.24298e-05, cumulative = -0.0159683
smoothSolver:  Solving for omega, Initial residual = 0.00377274, Final residual = 0.000238421, No Iterations 1
smoothSolver:  Solving for k, Initial residual = 0.0174362, Final residual = 0.00133498, No Iterations 1
ExecutionTime = 3.91 s  ClockTime = 4 s

Time = 104

smoothSolver:  Solving for Ux, Initial residual = 0.00889421, Final residual = 0.000453888, No Iterations 2
smoothSolver:  Solving for Uy, Initial residual = 0.0230329, Final residual = 0.00127898, No Iterations 2
GAMG:  Solving for p, Initial residual = 0.188096, Final residual = 0.00136308, No Iterations 8
time step continuity errors : sum local = 0.0101392, global = 1.06699e-06, cumulative = -0.0159673
smoothSolver:  Solving for omega, Initial residual = 0.00386267, Final residual = 0.000242467, No Iterations 1
smoothSolver:  Solving for k, Initial residual = 0.0176352, Final residual = 0.00134726, No Iterations 1
ExecutionTime = 3.94 s  ClockTime = 4 s

Time = 105

smoothSolver:  Solving for Ux, Initial residual = 0.00898625, Final residual = 0.000458241, No Iterations 2
smoothSolver:  Solving for Uy, Initial residual = 0.023354, Final residual = 0.00128784, No Iterations 2
GAMG:  Solving for p, Initial residual = 0.193826, Final residual = 0.000978463, No Iterations 8
time step continuity errors : sum local = 0.00727932, global = 2.15606e-06, cumulative = -0.0159651
smoothSolver:  Solving for omega, Initial residual = 0.0038668, Final residual = 0.000244745, No Iterations 1
smoothSolver:  Solving for k, Initial residual = 0.017742, Final residual = 0.00135346, No Iterations 1
ExecutionTime = 3.97 s  ClockTime = 4 s

Time = 106

smoothSolver:  Solving for Ux, Initial residual = 0.00905381, Final residual = 0.000462937, No Iterations 2
smoothSolver:  Solving for Uy, Initial residual = 0.0235748, Final residual = 0.00131092, No Iterations 2
GAMG:  Solving for p, Initial residual = 0.194321, Final residual = 0.000775911, No Iterations 8
time step continuity errors : sum local = 0.00577582, global = -9.23785e-07, cumulative = -0.015966
smoothSolver:  Solving for omega, Initial residual = 0.00388945, Final residual = 0.000246168, No Iterations 1
smoothSolver:  Solving for k, Initial residual = 0.0177469, Final residual = 0.00135968, No Iterations 1
ExecutionTime = 4 s  ClockTime = 4 s

Time = 107

smoothSolver:  Solving for Ux, Initial residual = 0.0091309, Final residual = 0.000467368, No Iterations 2
smoothSolver:  Solving for Uy, Initial residual = 0.0238745, Final residual = 0.00132534, No Iterations 2
GAMG:  Solving for p, Initial residual = 0.196598, Final residual = 0.000772271, No Iterations 8
time step continuity errors : sum local = 0.00578037, global = -2.66786e-06, cumulative = -0.0159687
smoothSolver:  Solving for omega, Initial residual = 0.00393155, Final residual = 0.000249095, No Iterations 1
smoothSolver:  Solving for k, Initial residual = 0.017846, Final residual = 0.00136679, No Iterations 1
ExecutionTime = 4.04 s  ClockTime = 4 s

Time = 108

smoothSolver:  Solving for Ux, Initial residual = 0.00920864, Final residual = 0.000471374, No Iterations 2
smoothSolver:  Solving for Uy, Initial residual = 0.0241392, Final residual = 0.00133662, No Iterations 2
GAMG:  Solving for p, Initial residual = 0.198962, Final residual = 0.000783683, No Iterations 8
time step continuity errors : sum local = 0.00587702, global = -2.40427e-06, cumulative = -0.0159711
smoothSolver:  Solving for omega, Initial residual = 0.00395314, Final residual = 0.000250807, No Iterations 1
smoothSolver:  Solving for k, Initial residual = 0.0179514, Final residual = 0.00137115, No Iterations 1
ExecutionTime = 4.08 s  ClockTime = 4 s

Time = 109

smoothSolver:  Solving for Ux, Initial residual = 0.00927764, Final residual = 0.00047468, No Iterations 2
smoothSolver:  Solving for Uy, Initial residual = 0.0243523, Final residual = 0.00135967, No Iterations 2
GAMG:  Solving for p, Initial residual = 0.197031, Final residual = 0.000788187, No Iterations 8
time step continuity errors : sum local = 0.00593918, global = -6.19701e-06, cumulative = -0.0159773
smoothSolver:  Solving for omega, Initial residual = 0.00402547, Final residual = 0.000253398, No Iterations 1
smoothSolver:  Solving for k, Initial residual = 0.0180534, Final residual = 0.00137808, No Iterations 1
ExecutionTime = 4.11 s  ClockTime = 4 s

Time = 110

smoothSolver:  Solving for Ux, Initial residual = 0.00933898, Final residual = 0.00047861, No Iterations 2
smoothSolver:  Solving for Uy, Initial residual = 0.0246405, Final residual = 0.00137028, No Iterations 2
GAMG:  Solving for p, Initial residual = 0.200642, Final residual = 0.000761021, No Iterations 8
time step continuity errors : sum local = 0.00576109, global = -2.59133e-06, cumulative = -0.0159799
smoothSolver:  Solving for omega, Initial residual = 0.00401443, Final residual = 0.000255074, No Iterations 1
smoothSolver:  Solving for k, Initial residual = 0.0180971, Final residual = 0.00138803, No Iterations 1
ExecutionTime = 4.14 s  ClockTime = 4 s

Time = 111

smoothSolver:  Solving for Ux, Initial residual = 0.00938911, Final residual = 0.000481282, No Iterations 2
smoothSolver:  Solving for Uy, Initial residual = 0.0248833, Final residual = 0.00138629, No Iterations 2
GAMG:  Solving for p, Initial residual = 0.203413, Final residual = 0.000735677, No Iterations 8
time step continuity errors : sum local = 0.00557652, global = 2.07558e-06, cumulative = -0.0159778
smoothSolver:  Solving for omega, Initial residual = 0.00403653, Final residual = 0.000256648, No Iterations 1
smoothSolver:  Solving for k, Initial residual = 0.0181953, Final residual = 0.00138968, No Iterations 1
ExecutionTime = 4.17 s  ClockTime = 4 s

Time = 112

smoothSolver:  Solving for Ux, Initial residual = 0.00943356, Final residual = 0.000482906, No Iterations 2
smoothSolver:  Solving for Uy, Initial residual = 0.0251358, Final residual = 0.00140754, No Iterations 2
GAMG:  Solving for p, Initial residual = 0.203998, Final residual = 0.000775596, No Iterations 8
time step continuity errors : sum local = 0.00585748, global = 2.15592e-06, cumulative = -0.0159757
smoothSolver:  Solving for omega, Initial residual = 0.00408183, Final residual = 0.000259603, No Iterations 1
smoothSolver:  Solving for k, Initial residual = 0.0182317, Final residual = 0.00139951, No Iterations 1
ExecutionTime = 4.2 s  ClockTime = 4 s

Time = 113

smoothSolver:  Solving for Ux, Initial residual = 0.00946879, Final residual = 0.000486086, No Iterations 2
smoothSolver:  Solving for Uy, Initial residual = 0.0253263, Final residual = 0.00141548, No Iterations 2
GAMG:  Solving for p, Initial residual = 0.206452, Final residual = 0.000851714, No Iterations 8
time step continuity errors : sum local = 0.00643222, global = 3.22316e-06, cumulative = -0.0159725
smoothSolver:  Solving for omega, Initial residual = 0.00408053, Final residual = 0.000260482, No Iterations 1
smoothSolver:  Solving for k, Initial residual = 0.0183082, Final residual = 0.0014059, No Iterations 1
ExecutionTime = 4.23 s  ClockTime = 4 s

Time = 114

smoothSolver:  Solving for Ux, Initial residual = 0.00948509, Final residual = 0.000487307, No Iterations 2
smoothSolver:  Solving for Uy, Initial residual = 0.0255425, Final residual = 0.00143234, No Iterations 2
GAMG:  Solving for p, Initial residual = 0.206767, Final residual = 0.00194569, No Iterations 7
time step continuity errors : sum local = 0.0146831, global = 1.10947e-05, cumulative = -0.0159614
smoothSolver:  Solving for omega, Initial residual = 0.00411271, Final residual = 0.000261629, No Iterations 1
smoothSolver:  Solving for k, Initial residual = 0.0182671, Final residual = 0.0014041, No Iterations 1
ExecutionTime = 4.26 s  ClockTime = 4 s

Time = 115

smoothSolver:  Solving for Ux, Initial residual = 0.0095036, Final residual = 0.000487696, No Iterations 2
smoothSolver:  Solving for Uy, Initial residual = 0.0257003, Final residual = 0.00144868, No Iterations 2
GAMG:  Solving for p, Initial residual = 0.208145, Final residual = 0.00171594, No Iterations 7
time step continuity errors : sum local = 0.0129377, global = 1.15029e-05, cumulative = -0.0159499
smoothSolver:  Solving for omega, Initial residual = 0.00409944, Final residual = 0.000263979, No Iterations 1
[...]
GAMG:  Solving for p, Initial residual = 0.000260617, Final residual = 1.57211e-06, No Iterations 6
time step continuity errors : sum local = 2.59373e-06, global = 1.23906e-08, cumulative = -0.0121729
smoothSolver:  Solving for omega, Initial residual = 1.43685e-06, Final residual = 4.03045e-08, No Iterations 1
smoothSolver:  Solving for k, Initial residual = 8.02609e-06, Final residual = 9.49027e-08, No Iterations 2
ExecutionTime = 60.24 s  ClockTime = 61 s

Time = 1974

smoothSolver:  Solving for Ux, Initial residual = 2.00389e-06, Final residual = 1.39645e-07, No Iterations 2
smoothSolver:  Solving for Uy, Initial residual = 6.22256e-06, Final residual = 4.41571e-07, No Iterations 2
GAMG:  Solving for p, Initial residual = 0.000375737, Final residual = 2.06866e-06, No Iterations 6
time step continuity errors : sum local = 3.41361e-06, global = 1.10923e-08, cumulative = -0.0121729
smoothSolver:  Solving for omega, Initial residual = 1.42091e-06, Final residual = 4.2812e-08, No Iterations 1
smoothSolver:  Solving for k, Initial residual = 7.99359e-06, Final residual = 9.45458e-08, No Iterations 2
bounding k, min: -5.00825e-05 max: 0.051162 average: 0.010293
ExecutionTime = 60.27 s  ClockTime = 61 s

Time = 1975

smoothSolver:  Solving for Ux, Initial residual = 2.48411e-06, Final residual = 1.46565e-07, No Iterations 2
smoothSolver:  Solving for Uy, Initial residual = 7.96191e-06, Final residual = 4.63011e-07, No Iterations 2
GAMG:  Solving for p, Initial residual = 0.000485664, Final residual = 3.44716e-06, No Iterations 6
time step continuity errors : sum local = 5.68223e-06, global = 1.50014e-08, cumulative = -0.0121729
smoothSolver:  Solving for omega, Initial residual = 3.16068e-06, Final residual = 6.53264e-08, No Iterations 1
smoothSolver:  Solving for k, Initial residual = 8.56363e-06, Final residual = 9.44656e-08, No Iterations 2
ExecutionTime = 60.3 s  ClockTime = 61 s

Time = 1976

smoothSolver:  Solving for Ux, Initial residual = 2.37696e-06, Final residual = 1.37577e-07, No Iterations 2
smoothSolver:  Solving for Uy, Initial residual = 6.86153e-06, Final residual = 4.29231e-07, No Iterations 2
GAMG:  Solving for p, Initial residual = 0.000230036, Final residual = 1.95422e-06, No Iterations 5
time step continuity errors : sum local = 3.22212e-06, global = 1.73568e-08, cumulative = -0.0121729
smoothSolver:  Solving for omega, Initial residual = 1.57257e-06, Final residual = 4.58143e-08, No Iterations 1
smoothSolver:  Solving for k, Initial residual = 8.03078e-06, Final residual = 9.38076e-08, No Iterations 2
ExecutionTime = 60.32 s  ClockTime = 61 s

Time = 1977

smoothSolver:  Solving for Ux, Initial residual = 2.02903e-06, Final residual = 1.37043e-07, No Iterations 2
smoothSolver:  Solving for Uy, Initial residual = 6.24376e-06, Final residual = 4.25994e-07, No Iterations 2
GAMG:  Solving for p, Initial residual = 0.000132821, Final residual = 9.86265e-07, No Iterations 6
time step continuity errors : sum local = 1.62645e-06, global = 7.60864e-09, cumulative = -0.0121729
smoothSolver:  Solving for omega, Initial residual = 1.42828e-06, Final residual = 4.04621e-08, No Iterations 1
smoothSolver:  Solving for k, Initial residual = 7.91326e-06, Final residual = 9.33434e-08, No Iterations 2
ExecutionTime = 60.35 s  ClockTime = 61 s

Time = 1978

smoothSolver:  Solving for Ux, Initial residual = 2.00229e-06, Final residual = 1.3676e-07, No Iterations 2
smoothSolver:  Solving for Uy, Initial residual = 5.79662e-06, Final residual = 4.21537e-07, No Iterations 2
GAMG:  Solving for p, Initial residual = 0.000260611, Final residual = 1.57111e-06, No Iterations 6
time step continuity errors : sum local = 2.5915e-06, global = 1.27175e-08, cumulative = -0.0121729
smoothSolver:  Solving for omega, Initial residual = 1.42903e-06, Final residual = 3.95496e-08, No Iterations 1
smoothSolver:  Solving for k, Initial residual = 7.86175e-06, Final residual = 9.29085e-08, No Iterations 2
ExecutionTime = 60.38 s  ClockTime = 61 s

Time = 1979

smoothSolver:  Solving for Ux, Initial residual = 1.96227e-06, Final residual = 1.36344e-07, No Iterations 2
smoothSolver:  Solving for Uy, Initial residual = 6.11996e-06, Final residual = 4.32878e-07, No Iterations 2
GAMG:  Solving for p, Initial residual = 0.000375752, Final residual = 2.06767e-06, No Iterations 6
time step continuity errors : sum local = 3.41121e-06, global = 1.1651e-08, cumulative = -0.0121729
smoothSolver:  Solving for omega, Initial residual = 1.41313e-06, Final residual = 4.20614e-08, No Iterations 1
smoothSolver:  Solving for k, Initial residual = 7.82981e-06, Final residual = 9.25583e-08, No Iterations 2
bounding k, min: -5.00819e-05 max: 0.0511618 average: 0.0102936
ExecutionTime = 60.41 s  ClockTime = 61 s

Time = 1980

smoothSolver:  Solving for Ux, Initial residual = 2.44268e-06, Final residual = 1.4328e-07, No Iterations 2
smoothSolver:  Solving for Uy, Initial residual = 7.86002e-06, Final residual = 4.54378e-07, No Iterations 2
GAMG:  Solving for p, Initial residual = 0.000485704, Final residual = 3.44721e-06, No Iterations 6
time step continuity errors : sum local = 5.68104e-06, global = 1.52241e-08, cumulative = -0.0121728
smoothSolver:  Solving for omega, Initial residual = 3.1528e-06, Final residual = 6.45771e-08, No Iterations 1
smoothSolver:  Solving for k, Initial residual = 8.40042e-06, Final residual = 9.24851e-08, No Iterations 2
ExecutionTime = 60.45 s  ClockTime = 61 s

Time = 1981

smoothSolver:  Solving for Ux, Initial residual = 2.33572e-06, Final residual = 1.34308e-07, No Iterations 2
smoothSolver:  Solving for Uy, Initial residual = 6.76015e-06, Final residual = 4.20633e-07, No Iterations 2
GAMG:  Solving for p, Initial residual = 0.000230019, Final residual = 1.95219e-06, No Iterations 5
time step continuity errors : sum local = 3.21806e-06, global = 1.73654e-08, cumulative = -0.0121728
smoothSolver:  Solving for omega, Initial residual = 1.56482e-06, Final residual = 4.50698e-08, No Iterations 1
smoothSolver:  Solving for k, Initial residual = 7.86813e-06, Final residual = 9.1834e-08, No Iterations 2
ExecutionTime = 60.48 s  ClockTime = 61 s

Time = 1982

smoothSolver:  Solving for Ux, Initial residual = 1.98799e-06, Final residual = 1.33789e-07, No Iterations 2
smoothSolver:  Solving for Uy, Initial residual = 6.14294e-06, Final residual = 4.17441e-07, No Iterations 2
GAMG:  Solving for p, Initial residual = 0.000132786, Final residual = 9.84483e-07, No Iterations 6
time step continuity errors : sum local = 1.62316e-06, global = 7.6286e-09, cumulative = -0.0121728
smoothSolver:  Solving for omega, Initial residual = 1.42059e-06, Final residual = 3.9722e-08, No Iterations 1
smoothSolver:  Solving for k, Initial residual = 7.75117e-06, Final residual = 9.13766e-08, No Iterations 2
ExecutionTime = 60.51 s  ClockTime = 61 s

Time = 1983

smoothSolver:  Solving for Ux, Initial residual = 1.96142e-06, Final residual = 1.33518e-07, No Iterations 2
smoothSolver:  Solving for Uy, Initial residual = 5.69567e-06, Final residual = 4.12982e-07, No Iterations 2
GAMG:  Solving for p, Initial residual = 0.000260604, Final residual = 1.56972e-06, No Iterations 6
time step continuity errors : sum local = 2.58862e-06, global = 1.23912e-08, cumulative = -0.0121728
smoothSolver:  Solving for omega, Initial residual = 1.4214e-06, Final residual = 3.88146e-08, No Iterations 1
smoothSolver:  Solving for k, Initial residual = 7.70024e-06, Final residual = 9.09485e-08, No Iterations 2
ExecutionTime = 60.54 s  ClockTime = 61 s

Time = 1984

smoothSolver:  Solving for Ux, Initial residual = 1.92158e-06, Final residual = 1.33117e-07, No Iterations 2
smoothSolver:  Solving for Uy, Initial residual = 6.01917e-06, Final residual = 4.24338e-07, No Iterations 2
GAMG:  Solving for p, Initial residual = 0.000375765, Final residual = 2.06664e-06, No Iterations 6
time step continuity errors : sum local = 3.40877e-06, global = 1.14552e-08, cumulative = -0.0121728
smoothSolver:  Solving for omega, Initial residual = 1.40554e-06, Final residual = 4.13307e-08, No Iterations 1
smoothSolver:  Solving for k, Initial residual = 7.66884e-06, Final residual = 9.06051e-08, No Iterations 2
bounding k, min: -5.00813e-05 max: 0.0511617 average: 0.0102941
ExecutionTime = 60.57 s  ClockTime = 61 s

Time = 1985

smoothSolver:  Solving for Ux, Initial residual = 2.40218e-06, Final residual = 1.40069e-07, No Iterations 2
smoothSolver:  Solving for Uy, Initial residual = 7.75985e-06, Final residual = 4.45891e-07, No Iterations 2
GAMG:  Solving for p, Initial residual = 0.000485744, Final residual = 3.44637e-06, No Iterations 6
time step continuity errors : sum local = 5.67841e-06, global = 1.47485e-08, cumulative = -0.0121728
smoothSolver:  Solving for omega, Initial residual = 3.14513e-06, Final residual = 6.38475e-08, No Iterations 1
smoothSolver:  Solving for k, Initial residual = 8.24002e-06, Final residual = 9.05386e-08, No Iterations 2
ExecutionTime = 60.6 s  ClockTime = 61 s

Time = 1986

smoothSolver:  Solving for Ux, Initial residual = 2.29541e-06, Final residual = 1.31111e-07, No Iterations 2
smoothSolver:  Solving for Uy, Initial residual = 6.66043e-06, Final residual = 4.12176e-07, No Iterations 2
GAMG:  Solving for p, Initial residual = 0.000230003, Final residual = 1.94963e-06, No Iterations 5
time step continuity errors : sum local = 3.21314e-06, global = 1.69412e-08, cumulative = -0.0121728
smoothSolver:  Solving for omega, Initial residual = 1.55728e-06, Final residual = 4.43447e-08, No Iterations 1
smoothSolver:  Solving for k, Initial residual = 7.70827e-06, Final residual = 8.98943e-08, No Iterations 2
ExecutionTime = 60.63 s  ClockTime = 61 s

Time = 1987

smoothSolver:  Solving for Ux, Initial residual = 1.94786e-06, Final residual = 1.30607e-07, No Iterations 2
smoothSolver:  Solving for Uy, Initial residual = 6.04378e-06, Final residual = 4.0903e-07, No Iterations 2
GAMG:  Solving for p, Initial residual = 0.000132752, Final residual = 9.82442e-07, No Iterations 6
time step continuity errors : sum local = 1.61944e-06, global = 7.34953e-09, cumulative = -0.0121727
smoothSolver:  Solving for omega, Initial residual = 1.4131e-06, Final residual = 3.90013e-08, No Iterations 1
smoothSolver:  Solving for k, Initial residual = 7.59188e-06, Final residual = 8.94438e-08, No Iterations 2
ExecutionTime = 60.66 s  ClockTime = 61 s

Time = 1988

smoothSolver:  Solving for Ux, Initial residual = 1.92145e-06, Final residual = 1.30348e-07, No Iterations 2
smoothSolver:  Solving for Uy, Initial residual = 5.59642e-06, Final residual = 4.04572e-07, No Iterations 2
GAMG:  Solving for p, Initial residual = 0.000260598, Final residual = 1.56826e-06, No Iterations 6
time step continuity errors : sum local = 2.58566e-06, global = 1.19205e-08, cumulative = -0.0121727
smoothSolver:  Solving for omega, Initial residual = 1.41397e-06, Final residual = 3.80988e-08, No Iterations 1
smoothSolver:  Solving for k, Initial residual = 7.54151e-06, Final residual = 8.90224e-08, No Iterations 2
ExecutionTime = 60.69 s  ClockTime = 61 s

Time = 1989

smoothSolver:  Solving for Ux, Initial residual = 1.88179e-06, Final residual = 1.29961e-07, No Iterations 2
smoothSolver:  Solving for Uy, Initial residual = 5.92012e-06, Final residual = 4.15948e-07, No Iterations 2
GAMG:  Solving for p, Initial residual = 0.000375779, Final residual = 2.06563e-06, No Iterations 6
time step continuity errors : sum local = 3.40637e-06, global = 1.12515e-08, cumulative = -0.0121727
smoothSolver:  Solving for omega, Initial residual = 1.39816e-06, Final residual = 4.06191e-08, No Iterations 1
smoothSolver:  Solving for k, Initial residual = 7.51065e-06, Final residual = 8.86856e-08, No Iterations 2
bounding k, min: -5.00807e-05 max: 0.0511615 average: 0.0102947
ExecutionTime = 60.72 s  ClockTime = 61 s

Time = 1990

smoothSolver:  Solving for Ux, Initial residual = 2.36258e-06, Final residual = 1.36928e-07, No Iterations 2
smoothSolver:  Solving for Uy, Initial residual = 7.66145e-06, Final residual = 4.37555e-07, No Iterations 2
GAMG:  Solving for p, Initial residual = 0.000485782, Final residual = 3.44573e-06, No Iterations 6
time step continuity errors : sum local = 5.67613e-06, global = 1.4422e-08, cumulative = -0.0121727
smoothSolver:  Solving for omega, Initial residual = 3.13766e-06, Final residual = 6.31369e-08, No Iterations 1
smoothSolver:  Solving for k, Initial residual = 8.08239e-06, Final residual = 8.86259e-08, No Iterations 2
ExecutionTime = 60.75 s  ClockTime = 61 s

Time = 1991

smoothSolver:  Solving for Ux, Initial residual = 2.25599e-06, Final residual = 1.27986e-07, No Iterations 2
smoothSolver:  Solving for Uy, Initial residual = 6.56251e-06, Final residual = 4.03872e-07, No Iterations 2
GAMG:  Solving for p, Initial residual = 0.000229986, Final residual = 1.94744e-06, No Iterations 5
time step continuity errors : sum local = 3.20883e-06, global = 1.6724e-08, cumulative = -0.0121727
smoothSolver:  Solving for omega, Initial residual = 1.54995e-06, Final residual = 4.36387e-08, No Iterations 1
smoothSolver:  Solving for k, Initial residual = 7.55118e-06, Final residual = 8.79883e-08, No Iterations 2
ExecutionTime = 60.77 s  ClockTime = 61 s

Time = 1992

smoothSolver:  Solving for Ux, Initial residual = 1.90864e-06, Final residual = 1.27495e-07, No Iterations 2
smoothSolver:  Solving for Uy, Initial residual = 5.94643e-06, Final residual = 4.00774e-07, No Iterations 2
GAMG:  Solving for p, Initial residual = 0.000132718, Final residual = 9.8074e-07, No Iterations 6
time step continuity errors : sum local = 1.61628e-06, global = 7.33044e-09, cumulative = -0.0121727
smoothSolver:  Solving for omega, Initial residual = 1.40583e-06, Final residual = 3.82996e-08, No Iterations 1
smoothSolver:  Solving for k, Initial residual = 7.43534e-06, Final residual = 8.75445e-08, No Iterations 2
ExecutionTime = 60.8 s  ClockTime = 61 s

Time = 1993

smoothSolver:  Solving for Ux, Initial residual = 1.88238e-06, Final residual = 1.27249e-07, No Iterations 2
smoothSolver:  Solving for Uy, Initial residual = 5.49897e-06, Final residual = 3.96315e-07, No Iterations 2
GAMG:  Solving for p, Initial residual = 0.000260592, Final residual = 1.56703e-06, No Iterations 6
time step continuity errors : sum local = 2.58308e-06, global = 1.17248e-08, cumulative = -0.0121727
smoothSolver:  Solving for omega, Initial residual = 1.40676e-06, Final residual = 3.7402e-08, No Iterations 1
smoothSolver:  Solving for k, Initial residual = 7.38553e-06, Final residual = 8.71297e-08, No Iterations 2
ExecutionTime = 60.83 s  ClockTime = 61 s

Time = 1994

smoothSolver:  Solving for Ux, Initial residual = 1.8429e-06, Final residual = 1.26876e-07, No Iterations 2
smoothSolver:  Solving for Uy, Initial residual = 5.82287e-06, Final residual = 4.0771e-07, No Iterations 2
GAMG:  Solving for p, Initial residual = 0.000375792, Final residual = 2.06471e-06, No Iterations 6
time step continuity errors : sum local = 3.40411e-06, global = 1.13986e-08, cumulative = -0.0121727
smoothSolver:  Solving for omega, Initial residual = 1.39098e-06, Final residual = 3.99264e-08, No Iterations 1
smoothSolver:  Solving for k, Initial residual = 7.35521e-06, Final residual = 8.67995e-08, No Iterations 2
bounding k, min: -5.00801e-05 max: 0.0511614 average: 0.0102952
ExecutionTime = 60.86 s  ClockTime = 61 s

Time = 1995

smoothSolver:  Solving for Ux, Initial residual = 2.32387e-06, Final residual = 1.33857e-07, No Iterations 2
smoothSolver:  Solving for Uy, Initial residual = 7.56483e-06, Final residual = 4.29371e-07, No Iterations 2
GAMG:  Solving for p, Initial residual = 0.000485821, Final residual = 3.4456e-06, No Iterations 6
time step continuity errors : sum local = 5.67471e-06, global = 1.44212e-08, cumulative = -0.0121726
smoothSolver:  Solving for omega, Initial residual = 3.1304e-06, Final residual = 6.24453e-08, No Iterations 1
smoothSolver:  Solving for k, Initial residual = 7.92749e-06, Final residual = 8.67464e-08, No Iterations 2
ExecutionTime = 60.89 s  ClockTime = 61 s

Time = 1996

smoothSolver:  Solving for Ux, Initial residual = 2.21747e-06, Final residual = 1.2493e-07, No Iterations 2
smoothSolver:  Solving for Uy, Initial residual = 6.46635e-06, Final residual = 3.9572e-07, No Iterations 2
GAMG:  Solving for p, Initial residual = 0.000229971, Final residual = 1.94566e-06, No Iterations 5
time step continuity errors : sum local = 3.20522e-06, global = 1.67113e-08, cumulative = -0.0121726
smoothSolver:  Solving for omega, Initial residual = 1.5428e-06, Final residual = 4.29515e-08, No Iterations 1
smoothSolver:  Solving for k, Initial residual = 7.39682e-06, Final residual = 8.61154e-08, No Iterations 2
ExecutionTime = 60.92 s  ClockTime = 61 s

Time = 1997

smoothSolver:  Solving for Ux, Initial residual = 1.87029e-06, Final residual = 1.24453e-07, No Iterations 2
smoothSolver:  Solving for Uy, Initial residual = 5.85084e-06, Final residual = 3.92666e-07, No Iterations 2
GAMG:  Solving for p, Initial residual = 0.000132685, Final residual = 9.79343e-07, No Iterations 6
time step continuity errors : sum local = 1.61364e-06, global = 7.4838e-09, cumulative = -0.0121726
smoothSolver:  Solving for omega, Initial residual = 1.39874e-06, Final residual = 3.76164e-08, No Iterations 1
smoothSolver:  Solving for k, Initial residual = 7.28153e-06, Final residual = 8.56783e-08, No Iterations 2
ExecutionTime = 60.95 s  ClockTime = 61 s

Time = 1998

smoothSolver:  Solving for Ux, Initial residual = 1.84419e-06, Final residual = 1.24219e-07, No Iterations 2
smoothSolver:  Solving for Uy, Initial residual = 5.40328e-06, Final residual = 3.88208e-07, No Iterations 2
GAMG:  Solving for p, Initial residual = 0.000260586, Final residual = 1.56594e-06, No Iterations 6
time step continuity errors : sum local = 2.58075e-06, global = 1.1688e-08, cumulative = -0.0121726
smoothSolver:  Solving for omega, Initial residual = 1.39972e-06, Final residual = 3.67237e-08, No Iterations 1
smoothSolver:  Solving for k, Initial residual = 7.23226e-06, Final residual = 8.52701e-08, No Iterations 2
ExecutionTime = 60.98 s  ClockTime = 61 s

Time = 1999

smoothSolver:  Solving for Ux, Initial residual = 1.80489e-06, Final residual = 1.23861e-07, No Iterations 2
smoothSolver:  Solving for Uy, Initial residual = 5.72739e-06, Final residual = 3.99622e-07, No Iterations 2
GAMG:  Solving for p, Initial residual = 0.000375806, Final residual = 2.06384e-06, No Iterations 6
time step continuity errors : sum local = 3.40196e-06, global = 1.16246e-08, cumulative = -0.0121726
smoothSolver:  Solving for omega, Initial residual = 1.38398e-06, Final residual = 3.92521e-08, No Iterations 1
smoothSolver:  Solving for k, Initial residual = 7.20248e-06, Final residual = 8.49463e-08, No Iterations 2
bounding k, min: -5.00795e-05 max: 0.0511612 average: 0.0102957
ExecutionTime = 61.01 s  ClockTime = 61 s

Time = 2000

smoothSolver:  Solving for Ux, Initial residual = 2.28604e-06, Final residual = 1.30857e-07, No Iterations 2
smoothSolver:  Solving for Uy, Initial residual = 7.46996e-06, Final residual = 4.21338e-07, No Iterations 2
GAMG:  Solving for p, Initial residual = 0.000485859, Final residual = 3.4455e-06, No Iterations 6
time step continuity errors : sum local = 5.67334e-06, global = 1.44686e-08, cumulative = -0.0121726
smoothSolver:  Solving for omega, Initial residual = 3.12332e-06, Final residual = 6.17718e-08, No Iterations 1
smoothSolver:  Solving for k, Initial residual = 7.7753e-06, Final residual = 8.48998e-08, No Iterations 2
ExecutionTime = 61.1 s  ClockTime = 61 s

wallShearStress wallShearStress write:
    writing field wallShearStress
    min/max(topWall) = (-0.00782297 -9.18559e-07 0), (-0.00118895 7.34342e-05 0)
    min/max(bottomWall) = (-0.000959787 -2.78861e-05 0), (0.00152116 7.72859e-06 0)
    min/max(stepWall) = (-0.000284229 -0.000723171 0), (4.05652e-05 5.57237e-05 0)
    min/max(stepTop) = (-0.00782297 -7.34339e-05 0), (-0.00381877 1.9221e-05 0)
End

